
---------- Begin Simulation Statistics ----------
final_tick                               168958255000                       # Number of ticks from beginning of simulation (restored from checkpoints and never reset)
host_inst_rate                                 189972                       # Simulator instruction rate (inst/s)
host_mem_usage                                 703828                       # Number of bytes of host memory used
host_op_rate                                   189972                       # Simulator op (including micro ops) rate (op/s)
host_seconds                                  1521.29                       # Real time elapsed on the host
host_tick_rate                              111062154                       # Simulator tick rate (ticks/s)
sim_freq                                 1000000000000                       # Frequency of simulated ticks
sim_insts                                   289002946                       # Number of instructions simulated
sim_ops                                     289003306                       # Number of ops (including micro ops) simulated
sim_seconds                                  0.168958                       # Number of seconds simulated
sim_ticks                                168958255000                       # Number of ticks simulated
system.clk_domain.clock                          1000                       # Clock period in ticks
system.clk_domain.voltage_domain.voltage            1                       # Voltage in Volts
system.cpu0.branchPred.BTBCorrect                   0                       # Number of correct BTB predictions (this stat may not work properly.
system.cpu0.branchPred.BTBHitPct            41.477074                       # BTB Hit Percentage
system.cpu0.branchPred.BTBHits                   3555                       # Number of BTB hits
system.cpu0.branchPred.BTBLookups                8571                       # Number of BTB lookups
system.cpu0.branchPred.RASInCorrect                 0                       # Number of incorrect RAS predictions.
system.cpu0.branchPred.condIncorrect             3876                       # Number of conditional branches incorrect
system.cpu0.branchPred.condPredicted            14099                       # Number of conditional branches predicted
system.cpu0.branchPred.indirectHits                65                       # Number of indirect target hits.
system.cpu0.branchPred.indirectLookups           4232                       # Number of indirect predictor lookups.
system.cpu0.branchPred.indirectMisses            4167                       # Number of indirect misses.
system.cpu0.branchPred.lookups                  20401                       # Number of BP lookups
system.cpu0.branchPred.usedRAS                      0                       # Number of times the RAS was used to get a target.
system.cpu0.branchPredindirectMispredicted         2099                       # Number of mispredicted indirect branches.
system.cpu0.bt.discartedCfgs                     2038                       # Number of discated configuration
system.cpu0.bt.endResource                          0                       # Number of configurations ended by lack of resource
system.cpu0.bt.endSpeculation                    1406                       # Number of configurations ended due to reach the speculation limit
system.cpu0.bt.endUnknownInst                     572                       # Number of configurations ended due a unknown instruction
system.cpu0.bt.insts::samples                    1795                       # Number of instructions mapped in this configuration
system.cpu0.bt.insts::mean                  12.873538                       # Number of instructions mapped in this configuration
system.cpu0.bt.insts::stdev                  8.491267                       # Number of instructions mapped in this configuration
system.cpu0.bt.insts::underflows                    0      0.00%      0.00% # Number of instructions mapped in this configuration
system.cpu0.bt.insts::0                             0      0.00%      0.00% # Number of instructions mapped in this configuration
system.cpu0.bt.insts::1                             0      0.00%      0.00% # Number of instructions mapped in this configuration
system.cpu0.bt.insts::2                             0      0.00%      0.00% # Number of instructions mapped in this configuration
system.cpu0.bt.insts::3                             0      0.00%      0.00% # Number of instructions mapped in this configuration
system.cpu0.bt.insts::4                           123      6.85%      6.85% # Number of instructions mapped in this configuration
system.cpu0.bt.insts::5                           103      5.74%     12.59% # Number of instructions mapped in this configuration
system.cpu0.bt.insts::6                           194     10.81%     23.40% # Number of instructions mapped in this configuration
system.cpu0.bt.insts::7                           111      6.18%     29.58% # Number of instructions mapped in this configuration
system.cpu0.bt.insts::8                           142      7.91%     37.49% # Number of instructions mapped in this configuration
system.cpu0.bt.insts::9                            90      5.01%     42.51% # Number of instructions mapped in this configuration
system.cpu0.bt.insts::10                           46      2.56%     45.07% # Number of instructions mapped in this configuration
system.cpu0.bt.insts::11                          148      8.25%     53.31% # Number of instructions mapped in this configuration
system.cpu0.bt.insts::12                           91      5.07%     58.38% # Number of instructions mapped in this configuration
system.cpu0.bt.insts::13                          102      5.68%     64.07% # Number of instructions mapped in this configuration
system.cpu0.bt.insts::14                           37      2.06%     66.13% # Number of instructions mapped in this configuration
system.cpu0.bt.insts::15                           64      3.57%     69.69% # Number of instructions mapped in this configuration
system.cpu0.bt.insts::16                           76      4.23%     73.93% # Number of instructions mapped in this configuration
system.cpu0.bt.insts::17                          110      6.13%     80.06% # Number of instructions mapped in this configuration
system.cpu0.bt.insts::18                           20      1.11%     81.17% # Number of instructions mapped in this configuration
system.cpu0.bt.insts::19                           66      3.68%     84.85% # Number of instructions mapped in this configuration
system.cpu0.bt.insts::20                           45      2.51%     87.35% # Number of instructions mapped in this configuration
system.cpu0.bt.insts::21                           18      1.00%     88.36% # Number of instructions mapped in this configuration
system.cpu0.bt.insts::22                           18      1.00%     89.36% # Number of instructions mapped in this configuration
system.cpu0.bt.insts::23                           27      1.50%     90.86% # Number of instructions mapped in this configuration
system.cpu0.bt.insts::24                           20      1.11%     91.98% # Number of instructions mapped in this configuration
system.cpu0.bt.insts::25                           32      1.78%     93.76% # Number of instructions mapped in this configuration
system.cpu0.bt.insts::26                           18      1.00%     94.76% # Number of instructions mapped in this configuration
system.cpu0.bt.insts::27                            7      0.39%     95.15% # Number of instructions mapped in this configuration
system.cpu0.bt.insts::28                           28      1.56%     96.71% # Number of instructions mapped in this configuration
system.cpu0.bt.insts::29                            3      0.17%     96.88% # Number of instructions mapped in this configuration
system.cpu0.bt.insts::30                            1      0.06%     96.94% # Number of instructions mapped in this configuration
system.cpu0.bt.insts::31                           16      0.89%     97.83% # Number of instructions mapped in this configuration
system.cpu0.bt.insts::32                            2      0.11%     97.94% # Number of instructions mapped in this configuration
system.cpu0.bt.insts::overflows                    37      2.06%    100.00% # Number of instructions mapped in this configuration
system.cpu0.bt.insts::min_value                     4                       # Number of instructions mapped in this configuration
system.cpu0.bt.insts::max_value                    76                       # Number of instructions mapped in this configuration
system.cpu0.bt.insts::total                      1795                       # Number of instructions mapped in this configuration
system.cpu0.bt.ipc::samples                      1795                       # IPC for generated configurations
system.cpu0.bt.ipc::mean                     2.056179                       # IPC for generated configurations
system.cpu0.bt.ipc::stdev                    0.610188                       # IPC for generated configurations
system.cpu0.bt.ipc::underflows                      0      0.00%      0.00% # IPC for generated configurations
system.cpu0.bt.ipc::0                               0      0.00%      0.00% # IPC for generated configurations
system.cpu0.bt.ipc::1                             777     43.29%     43.29% # IPC for generated configurations
system.cpu0.bt.ipc::2                             814     45.35%     88.64% # IPC for generated configurations
system.cpu0.bt.ipc::3                             181     10.08%     98.72% # IPC for generated configurations
system.cpu0.bt.ipc::4                              23      1.28%    100.00% # IPC for generated configurations
system.cpu0.bt.ipc::5                               0      0.00%    100.00% # IPC for generated configurations
system.cpu0.bt.ipc::6                               0      0.00%    100.00% # IPC for generated configurations
system.cpu0.bt.ipc::7                               0      0.00%    100.00% # IPC for generated configurations
system.cpu0.bt.ipc::8                               0      0.00%    100.00% # IPC for generated configurations
system.cpu0.bt.ipc::9                               0      0.00%    100.00% # IPC for generated configurations
system.cpu0.bt.ipc::10                              0      0.00%    100.00% # IPC for generated configurations
system.cpu0.bt.ipc::11                              0      0.00%    100.00% # IPC for generated configurations
system.cpu0.bt.ipc::12                              0      0.00%    100.00% # IPC for generated configurations
system.cpu0.bt.ipc::13                              0      0.00%    100.00% # IPC for generated configurations
system.cpu0.bt.ipc::14                              0      0.00%    100.00% # IPC for generated configurations
system.cpu0.bt.ipc::15                              0      0.00%    100.00% # IPC for generated configurations
system.cpu0.bt.ipc::16                              0      0.00%    100.00% # IPC for generated configurations
system.cpu0.bt.ipc::overflows                       0      0.00%    100.00% # IPC for generated configurations
system.cpu0.bt.ipc::min_value                       1                       # IPC for generated configurations
system.cpu0.bt.ipc::max_value                       4                       # IPC for generated configurations
system.cpu0.bt.ipc::total                        1795                       # IPC for generated configurations
system.cpu0.commit.amos                           273                       # Number of atomic instructions committed
system.cpu0.commit.branchMispredicts             3516                       # The number of times a branch was mispredicted
system.cpu0.commit.branches                     12240                       # Number of branches committed
system.cpu0.commit.bw_lim_events                 3895                       # number cycles where commit BW limit reached
system.cpu0.commit.commitNonSpecStalls           1170                       # The number of times commit has been forced to stall to communicate backwards
system.cpu0.commit.commitSquashedInsts          11118                       # The number of squashed insts skipped by commit
system.cpu0.commit.committedInsts               62426                       # Number of instructions committed
system.cpu0.commit.committedOps                 62708                       # Number of ops (including micro ops) committed
system.cpu0.commit.committed_per_cycle::samples       140493                       # Number of insts commited each cycle
system.cpu0.commit.committed_per_cycle::mean     0.446343                       # Number of insts commited each cycle
system.cpu0.commit.committed_per_cycle::stdev     0.899558                       # Number of insts commited each cycle
system.cpu0.commit.committed_per_cycle::underflows            0      0.00%      0.00% # Number of insts commited each cycle
system.cpu0.commit.committed_per_cycle::0       102409     72.89%     72.89% # Number of insts commited each cycle
system.cpu0.commit.committed_per_cycle::1        24425     17.39%     90.28% # Number of insts commited each cycle
system.cpu0.commit.committed_per_cycle::2         6589      4.69%     94.97% # Number of insts commited each cycle
system.cpu0.commit.committed_per_cycle::3         3175      2.26%     97.23% # Number of insts commited each cycle
system.cpu0.commit.committed_per_cycle::4         3895      2.77%    100.00% # Number of insts commited each cycle
system.cpu0.commit.committed_per_cycle::overflows            0      0.00%    100.00% # Number of insts commited each cycle
system.cpu0.commit.committed_per_cycle::min_value            0                       # Number of insts commited each cycle
system.cpu0.commit.committed_per_cycle::max_value            4                       # Number of insts commited each cycle
system.cpu0.commit.committed_per_cycle::total       140493                       # Number of insts commited each cycle
system.cpu0.commit.controlFlowGraph.numBasicBlocks            0                       # Number of different basic blocks executed
system.cpu0.commit.controlFlowGraph.profile::samples            0                       # Basic block distribution
system.cpu0.commit.controlFlowGraph.totalBasicBlocks            0                       # Number of total basic blocks executed
system.cpu0.commit.fp_insts                        12                       # Number of committed floating point instructions.
system.cpu0.commit.function_calls                3001                       # Number of function calls committed.
system.cpu0.commit.int_insts                    61650                       # Number of committed integer instructions.
system.cpu0.commit.loads                        13749                       # Number of loads committed
system.cpu0.commit.membars                        510                       # Number of memory barriers committed
system.cpu0.commit.op_class_0::No_OpClass          510      0.81%      0.81% # Class of committed instruction
system.cpu0.commit.op_class_0::IntAlu           36090     57.55%     58.37% # Class of committed instruction
system.cpu0.commit.op_class_0::IntMult             39      0.06%     58.43% # Class of committed instruction
system.cpu0.commit.op_class_0::IntDiv              50      0.08%     58.51% # Class of committed instruction
system.cpu0.commit.op_class_0::FloatAdd             0      0.00%     58.51% # Class of committed instruction
system.cpu0.commit.op_class_0::FloatCmp             0      0.00%     58.51% # Class of committed instruction
system.cpu0.commit.op_class_0::FloatCvt             0      0.00%     58.51% # Class of committed instruction
system.cpu0.commit.op_class_0::FloatMult            0      0.00%     58.51% # Class of committed instruction
system.cpu0.commit.op_class_0::FloatMultAcc            0      0.00%     58.51% # Class of committed instruction
system.cpu0.commit.op_class_0::FloatDiv             0      0.00%     58.51% # Class of committed instruction
system.cpu0.commit.op_class_0::FloatMisc            0      0.00%     58.51% # Class of committed instruction
system.cpu0.commit.op_class_0::FloatSqrt            0      0.00%     58.51% # Class of committed instruction
system.cpu0.commit.op_class_0::SimdAdd              0      0.00%     58.51% # Class of committed instruction
system.cpu0.commit.op_class_0::SimdAddAcc            0      0.00%     58.51% # Class of committed instruction
system.cpu0.commit.op_class_0::SimdAlu              0      0.00%     58.51% # Class of committed instruction
system.cpu0.commit.op_class_0::SimdCmp              0      0.00%     58.51% # Class of committed instruction
system.cpu0.commit.op_class_0::SimdCvt              0      0.00%     58.51% # Class of committed instruction
system.cpu0.commit.op_class_0::SimdMisc             0      0.00%     58.51% # Class of committed instruction
system.cpu0.commit.op_class_0::SimdMult             0      0.00%     58.51% # Class of committed instruction
system.cpu0.commit.op_class_0::SimdMultAcc            0      0.00%     58.51% # Class of committed instruction
system.cpu0.commit.op_class_0::SimdShift            0      0.00%     58.51% # Class of committed instruction
system.cpu0.commit.op_class_0::SimdShiftAcc            0      0.00%     58.51% # Class of committed instruction
system.cpu0.commit.op_class_0::SimdSqrt             0      0.00%     58.51% # Class of committed instruction
system.cpu0.commit.op_class_0::SimdFloatAdd            0      0.00%     58.51% # Class of committed instruction
system.cpu0.commit.op_class_0::SimdFloatAlu            0      0.00%     58.51% # Class of committed instruction
system.cpu0.commit.op_class_0::SimdFloatCmp            0      0.00%     58.51% # Class of committed instruction
system.cpu0.commit.op_class_0::SimdFloatCvt            0      0.00%     58.51% # Class of committed instruction
system.cpu0.commit.op_class_0::SimdFloatDiv            0      0.00%     58.51% # Class of committed instruction
system.cpu0.commit.op_class_0::SimdFloatMisc            0      0.00%     58.51% # Class of committed instruction
system.cpu0.commit.op_class_0::SimdFloatMult            0      0.00%     58.51% # Class of committed instruction
system.cpu0.commit.op_class_0::SimdFloatMultAcc            0      0.00%     58.51% # Class of committed instruction
system.cpu0.commit.op_class_0::SimdFloatSqrt            0      0.00%     58.51% # Class of committed instruction
system.cpu0.commit.op_class_0::SimdAes              0      0.00%     58.51% # Class of committed instruction
system.cpu0.commit.op_class_0::SimdAesMix            0      0.00%     58.51% # Class of committed instruction
system.cpu0.commit.op_class_0::SimdSha1Hash            0      0.00%     58.51% # Class of committed instruction
system.cpu0.commit.op_class_0::SimdSha1Hash2            0      0.00%     58.51% # Class of committed instruction
system.cpu0.commit.op_class_0::SimdSha256Hash            0      0.00%     58.51% # Class of committed instruction
system.cpu0.commit.op_class_0::SimdSha256Hash2            0      0.00%     58.51% # Class of committed instruction
system.cpu0.commit.op_class_0::SimdShaSigma2            0      0.00%     58.51% # Class of committed instruction
system.cpu0.commit.op_class_0::SimdShaSigma3            0      0.00%     58.51% # Class of committed instruction
system.cpu0.commit.op_class_0::MemRead          14022     22.36%     80.87% # Class of committed instruction
system.cpu0.commit.op_class_0::MemWrite         11985     19.11%     99.98% # Class of committed instruction
system.cpu0.commit.op_class_0::FloatMemRead            0      0.00%     99.98% # Class of committed instruction
system.cpu0.commit.op_class_0::FloatMemWrite           12      0.02%    100.00% # Class of committed instruction
system.cpu0.commit.op_class_0::IprAccess            0      0.00%    100.00% # Class of committed instruction
system.cpu0.commit.op_class_0::InstPrefetch            0      0.00%    100.00% # Class of committed instruction
system.cpu0.commit.op_class_0::total            62708                       # Class of committed instruction
system.cpu0.commit.refs                         26019                       # Number of memory references committed
system.cpu0.commit.swp_count                        0                       # Number of s/w prefetches committed
system.cpu0.commit.vec_insts                        0                       # Number of committed Vector instructions.
system.cpu0.committedInsts                      62426                       # Number of Instructions Simulated
system.cpu0.committedOps                        62708                       # Number of Ops (including micro ops) Simulated
system.cpu0.config_cache.cfgErased                 97                       # Number of configuration Erased due miss speculation
system.cpu0.config_cache.cfgReplacement          1568                       # Number of configuration replaced
system.cpu0.config_cache.cfgsLoaded              4401                       # Number of configurations loaded in the fetch stage
system.cpu0.config_cache.cfgsWritten             1793                       # Number of configuration written in the cache
system.cpu0.config_cache.hit                    46601                       # Number of hits
system.cpu0.config_cache.hitRatio            0.336929                       # The ratio of hit to the total acesses to the configuration cache
system.cpu0.config_cache.misses                 91710                       # Number of misses
system.cpu0.cpi                              2.965111                       # CPI: Cycles Per Instruction
system.cpu0.cpi_total                        2.965111                       # CPI: Total CPI of All Threads
system.cpu0.dcache.LoadLockedReq_accesses::.cpu0.data          224                       # number of LoadLockedReq accesses(hits+misses)
system.cpu0.dcache.LoadLockedReq_accesses::total          224                       # number of LoadLockedReq accesses(hits+misses)
system.cpu0.dcache.LoadLockedReq_avg_miss_latency::.cpu0.data       112500                       # average LoadLockedReq miss latency
system.cpu0.dcache.LoadLockedReq_avg_miss_latency::total       112500                       # average LoadLockedReq miss latency
system.cpu0.dcache.LoadLockedReq_avg_mshr_miss_latency::.cpu0.data       108000                       # average LoadLockedReq mshr miss latency
system.cpu0.dcache.LoadLockedReq_avg_mshr_miss_latency::total       108000                       # average LoadLockedReq mshr miss latency
system.cpu0.dcache.LoadLockedReq_hits::.cpu0.data          220                       # number of LoadLockedReq hits
system.cpu0.dcache.LoadLockedReq_hits::total          220                       # number of LoadLockedReq hits
system.cpu0.dcache.LoadLockedReq_miss_latency::.cpu0.data       450000                       # number of LoadLockedReq miss cycles
system.cpu0.dcache.LoadLockedReq_miss_latency::total       450000                       # number of LoadLockedReq miss cycles
system.cpu0.dcache.LoadLockedReq_miss_rate::.cpu0.data     0.017857                       # miss rate for LoadLockedReq accesses
system.cpu0.dcache.LoadLockedReq_miss_rate::total     0.017857                       # miss rate for LoadLockedReq accesses
system.cpu0.dcache.LoadLockedReq_misses::.cpu0.data            4                       # number of LoadLockedReq misses
system.cpu0.dcache.LoadLockedReq_misses::total            4                       # number of LoadLockedReq misses
system.cpu0.dcache.LoadLockedReq_mshr_hits::.cpu0.data            1                       # number of LoadLockedReq MSHR hits
system.cpu0.dcache.LoadLockedReq_mshr_hits::total            1                       # number of LoadLockedReq MSHR hits
system.cpu0.dcache.LoadLockedReq_mshr_miss_latency::.cpu0.data       324000                       # number of LoadLockedReq MSHR miss cycles
system.cpu0.dcache.LoadLockedReq_mshr_miss_latency::total       324000                       # number of LoadLockedReq MSHR miss cycles
system.cpu0.dcache.LoadLockedReq_mshr_miss_rate::.cpu0.data     0.013393                       # mshr miss rate for LoadLockedReq accesses
system.cpu0.dcache.LoadLockedReq_mshr_miss_rate::total     0.013393                       # mshr miss rate for LoadLockedReq accesses
system.cpu0.dcache.LoadLockedReq_mshr_misses::.cpu0.data            3                       # number of LoadLockedReq MSHR misses
system.cpu0.dcache.LoadLockedReq_mshr_misses::total            3                       # number of LoadLockedReq MSHR misses
system.cpu0.dcache.ReadReq_accesses::.cpu0.data        14885                       # number of ReadReq accesses(hits+misses)
system.cpu0.dcache.ReadReq_accesses::total        14885                       # number of ReadReq accesses(hits+misses)
system.cpu0.dcache.ReadReq_avg_miss_latency::.cpu0.data 97806.451613                       # average ReadReq miss latency
system.cpu0.dcache.ReadReq_avg_miss_latency::total 97806.451613                       # average ReadReq miss latency
system.cpu0.dcache.ReadReq_avg_mshr_miss_latency::.cpu0.data 102265.895954                       # average ReadReq mshr miss latency
system.cpu0.dcache.ReadReq_avg_mshr_miss_latency::total 102265.895954                       # average ReadReq mshr miss latency
system.cpu0.dcache.ReadReq_hits::.cpu0.data        13211                       # number of ReadReq hits
system.cpu0.dcache.ReadReq_hits::total          13211                       # number of ReadReq hits
system.cpu0.dcache.ReadReq_miss_latency::.cpu0.data    163728000                       # number of ReadReq miss cycles
system.cpu0.dcache.ReadReq_miss_latency::total    163728000                       # number of ReadReq miss cycles
system.cpu0.dcache.ReadReq_miss_rate::.cpu0.data     0.112462                       # miss rate for ReadReq accesses
system.cpu0.dcache.ReadReq_miss_rate::total     0.112462                       # miss rate for ReadReq accesses
system.cpu0.dcache.ReadReq_misses::.cpu0.data         1674                       # number of ReadReq misses
system.cpu0.dcache.ReadReq_misses::total         1674                       # number of ReadReq misses
system.cpu0.dcache.ReadReq_mshr_hits::.cpu0.data         1328                       # number of ReadReq MSHR hits
system.cpu0.dcache.ReadReq_mshr_hits::total         1328                       # number of ReadReq MSHR hits
system.cpu0.dcache.ReadReq_mshr_miss_latency::.cpu0.data     35384000                       # number of ReadReq MSHR miss cycles
system.cpu0.dcache.ReadReq_mshr_miss_latency::total     35384000                       # number of ReadReq MSHR miss cycles
system.cpu0.dcache.ReadReq_mshr_miss_rate::.cpu0.data     0.023245                       # mshr miss rate for ReadReq accesses
system.cpu0.dcache.ReadReq_mshr_miss_rate::total     0.023245                       # mshr miss rate for ReadReq accesses
system.cpu0.dcache.ReadReq_mshr_misses::.cpu0.data          346                       # number of ReadReq MSHR misses
system.cpu0.dcache.ReadReq_mshr_misses::total          346                       # number of ReadReq MSHR misses
system.cpu0.dcache.StoreCondReq_accesses::.cpu0.data          212                       # number of StoreCondReq accesses(hits+misses)
system.cpu0.dcache.StoreCondReq_accesses::total          212                       # number of StoreCondReq accesses(hits+misses)
system.cpu0.dcache.StoreCondReq_avg_miss_latency::.cpu0.data         8000                       # average StoreCondReq miss latency
system.cpu0.dcache.StoreCondReq_avg_miss_latency::total         8000                       # average StoreCondReq miss latency
system.cpu0.dcache.StoreCondReq_avg_mshr_miss_latency::.cpu0.data         6000                       # average StoreCondReq mshr miss latency
system.cpu0.dcache.StoreCondReq_avg_mshr_miss_latency::total         6000                       # average StoreCondReq mshr miss latency
system.cpu0.dcache.StoreCondReq_hits::.cpu0.data          209                       # number of StoreCondReq hits
system.cpu0.dcache.StoreCondReq_hits::total          209                       # number of StoreCondReq hits
system.cpu0.dcache.StoreCondReq_miss_latency::.cpu0.data        24000                       # number of StoreCondReq miss cycles
system.cpu0.dcache.StoreCondReq_miss_latency::total        24000                       # number of StoreCondReq miss cycles
system.cpu0.dcache.StoreCondReq_miss_rate::.cpu0.data     0.014151                       # miss rate for StoreCondReq accesses
system.cpu0.dcache.StoreCondReq_miss_rate::total     0.014151                       # miss rate for StoreCondReq accesses
system.cpu0.dcache.StoreCondReq_misses::.cpu0.data            3                       # number of StoreCondReq misses
system.cpu0.dcache.StoreCondReq_misses::total            3                       # number of StoreCondReq misses
system.cpu0.dcache.StoreCondReq_mshr_miss_latency::.cpu0.data        18000                       # number of StoreCondReq MSHR miss cycles
system.cpu0.dcache.StoreCondReq_mshr_miss_latency::total        18000                       # number of StoreCondReq MSHR miss cycles
system.cpu0.dcache.StoreCondReq_mshr_miss_rate::.cpu0.data     0.014151                       # mshr miss rate for StoreCondReq accesses
system.cpu0.dcache.StoreCondReq_mshr_miss_rate::total     0.014151                       # mshr miss rate for StoreCondReq accesses
system.cpu0.dcache.StoreCondReq_mshr_misses::.cpu0.data            3                       # number of StoreCondReq MSHR misses
system.cpu0.dcache.StoreCondReq_mshr_misses::total            3                       # number of StoreCondReq MSHR misses
system.cpu0.dcache.SwapReq_accesses::.cpu0.data          273                       # number of SwapReq accesses(hits+misses)
system.cpu0.dcache.SwapReq_accesses::total          273                       # number of SwapReq accesses(hits+misses)
system.cpu0.dcache.SwapReq_avg_miss_latency::.cpu0.data         8000                       # average SwapReq miss latency
system.cpu0.dcache.SwapReq_avg_miss_latency::total         8000                       # average SwapReq miss latency
system.cpu0.dcache.SwapReq_avg_mshr_miss_latency::.cpu0.data         6000                       # average SwapReq mshr miss latency
system.cpu0.dcache.SwapReq_avg_mshr_miss_latency::total         6000                       # average SwapReq mshr miss latency
system.cpu0.dcache.SwapReq_hits::.cpu0.data          270                       # number of SwapReq hits
system.cpu0.dcache.SwapReq_hits::total            270                       # number of SwapReq hits
system.cpu0.dcache.SwapReq_miss_latency::.cpu0.data        24000                       # number of SwapReq miss cycles
system.cpu0.dcache.SwapReq_miss_latency::total        24000                       # number of SwapReq miss cycles
system.cpu0.dcache.SwapReq_miss_rate::.cpu0.data     0.010989                       # miss rate for SwapReq accesses
system.cpu0.dcache.SwapReq_miss_rate::total     0.010989                       # miss rate for SwapReq accesses
system.cpu0.dcache.SwapReq_misses::.cpu0.data            3                       # number of SwapReq misses
system.cpu0.dcache.SwapReq_misses::total            3                       # number of SwapReq misses
system.cpu0.dcache.SwapReq_mshr_miss_latency::.cpu0.data        18000                       # number of SwapReq MSHR miss cycles
system.cpu0.dcache.SwapReq_mshr_miss_latency::total        18000                       # number of SwapReq MSHR miss cycles
system.cpu0.dcache.SwapReq_mshr_miss_rate::.cpu0.data     0.010989                       # mshr miss rate for SwapReq accesses
system.cpu0.dcache.SwapReq_mshr_miss_rate::total     0.010989                       # mshr miss rate for SwapReq accesses
system.cpu0.dcache.SwapReq_mshr_misses::.cpu0.data            3                       # number of SwapReq MSHR misses
system.cpu0.dcache.SwapReq_mshr_misses::total            3                       # number of SwapReq MSHR misses
system.cpu0.dcache.WriteReq_accesses::.cpu0.data        11785                       # number of WriteReq accesses(hits+misses)
system.cpu0.dcache.WriteReq_accesses::total        11785                       # number of WriteReq accesses(hits+misses)
system.cpu0.dcache.WriteReq_avg_miss_latency::.cpu0.data 100619.976342                       # average WriteReq miss latency
system.cpu0.dcache.WriteReq_avg_miss_latency::total 100619.976342                       # average WriteReq miss latency
system.cpu0.dcache.WriteReq_avg_mshr_miss_latency::.cpu0.data 112970.149254                       # average WriteReq mshr miss latency
system.cpu0.dcache.WriteReq_avg_mshr_miss_latency::total 112970.149254                       # average WriteReq mshr miss latency
system.cpu0.dcache.WriteReq_hits::.cpu0.data         9122                       # number of WriteReq hits
system.cpu0.dcache.WriteReq_hits::total          9122                       # number of WriteReq hits
system.cpu0.dcache.WriteReq_miss_latency::.cpu0.data    267950997                       # number of WriteReq miss cycles
system.cpu0.dcache.WriteReq_miss_latency::total    267950997                       # number of WriteReq miss cycles
system.cpu0.dcache.WriteReq_miss_rate::.cpu0.data     0.225965                       # miss rate for WriteReq accesses
system.cpu0.dcache.WriteReq_miss_rate::total     0.225965                       # miss rate for WriteReq accesses
system.cpu0.dcache.WriteReq_misses::.cpu0.data         2663                       # number of WriteReq misses
system.cpu0.dcache.WriteReq_misses::total         2663                       # number of WriteReq misses
system.cpu0.dcache.WriteReq_mshr_hits::.cpu0.data         2127                       # number of WriteReq MSHR hits
system.cpu0.dcache.WriteReq_mshr_hits::total         2127                       # number of WriteReq MSHR hits
system.cpu0.dcache.WriteReq_mshr_miss_latency::.cpu0.data     60552000                       # number of WriteReq MSHR miss cycles
system.cpu0.dcache.WriteReq_mshr_miss_latency::total     60552000                       # number of WriteReq MSHR miss cycles
system.cpu0.dcache.WriteReq_mshr_miss_rate::.cpu0.data     0.045482                       # mshr miss rate for WriteReq accesses
system.cpu0.dcache.WriteReq_mshr_miss_rate::total     0.045482                       # mshr miss rate for WriteReq accesses
system.cpu0.dcache.WriteReq_mshr_misses::.cpu0.data          536                       # number of WriteReq MSHR misses
system.cpu0.dcache.WriteReq_mshr_misses::total          536                       # number of WriteReq MSHR misses
system.cpu0.dcache.avg_blocked_cycles::no_mshrs    74.888889                       # average number of cycles each access was blocked
system.cpu0.dcache.avg_blocked_cycles::no_targets          nan                       # average number of cycles each access was blocked
system.cpu0.dcache.blocked::no_mshrs               27                       # number of cycles access was blocked
system.cpu0.dcache.blocked::no_targets              0                       # number of cycles access was blocked
system.cpu0.dcache.blocked_cycles::no_mshrs         2022                       # number of cycles access was blocked
system.cpu0.dcache.blocked_cycles::no_targets            0                       # number of cycles access was blocked
system.cpu0.dcache.demand_accesses::.cpu0.data        26670                       # number of demand (read+write) accesses
system.cpu0.dcache.demand_accesses::total        26670                       # number of demand (read+write) accesses
system.cpu0.dcache.demand_avg_miss_latency::.cpu0.data 99534.008992                       # average overall miss latency
system.cpu0.dcache.demand_avg_miss_latency::total 99534.008992                       # average overall miss latency
system.cpu0.dcache.demand_avg_mshr_miss_latency::.cpu0.data 108770.975057                       # average overall mshr miss latency
system.cpu0.dcache.demand_avg_mshr_miss_latency::total 108770.975057                       # average overall mshr miss latency
system.cpu0.dcache.demand_hits::.cpu0.data        22333                       # number of demand (read+write) hits
system.cpu0.dcache.demand_hits::total           22333                       # number of demand (read+write) hits
system.cpu0.dcache.demand_miss_latency::.cpu0.data    431678997                       # number of demand (read+write) miss cycles
system.cpu0.dcache.demand_miss_latency::total    431678997                       # number of demand (read+write) miss cycles
system.cpu0.dcache.demand_miss_rate::.cpu0.data     0.162617                       # miss rate for demand accesses
system.cpu0.dcache.demand_miss_rate::total     0.162617                       # miss rate for demand accesses
system.cpu0.dcache.demand_misses::.cpu0.data         4337                       # number of demand (read+write) misses
system.cpu0.dcache.demand_misses::total          4337                       # number of demand (read+write) misses
system.cpu0.dcache.demand_mshr_hits::.cpu0.data         3455                       # number of demand (read+write) MSHR hits
system.cpu0.dcache.demand_mshr_hits::total         3455                       # number of demand (read+write) MSHR hits
system.cpu0.dcache.demand_mshr_miss_latency::.cpu0.data     95936000                       # number of demand (read+write) MSHR miss cycles
system.cpu0.dcache.demand_mshr_miss_latency::total     95936000                       # number of demand (read+write) MSHR miss cycles
system.cpu0.dcache.demand_mshr_miss_rate::.cpu0.data     0.033071                       # mshr miss rate for demand accesses
system.cpu0.dcache.demand_mshr_miss_rate::total     0.033071                       # mshr miss rate for demand accesses
system.cpu0.dcache.demand_mshr_misses::.cpu0.data          882                       # number of demand (read+write) MSHR misses
system.cpu0.dcache.demand_mshr_misses::total          882                       # number of demand (read+write) MSHR misses
system.cpu0.dcache.overall_accesses::.cpu0.data        26670                       # number of overall (read+write) accesses
system.cpu0.dcache.overall_accesses::total        26670                       # number of overall (read+write) accesses
system.cpu0.dcache.overall_avg_miss_latency::.cpu0.data 99534.008992                       # average overall miss latency
system.cpu0.dcache.overall_avg_miss_latency::total 99534.008992                       # average overall miss latency
system.cpu0.dcache.overall_avg_mshr_miss_latency::.cpu0.data 108770.975057                       # average overall mshr miss latency
system.cpu0.dcache.overall_avg_mshr_miss_latency::total 108770.975057                       # average overall mshr miss latency
system.cpu0.dcache.overall_hits::.cpu0.data        22333                       # number of overall hits
system.cpu0.dcache.overall_hits::total          22333                       # number of overall hits
system.cpu0.dcache.overall_miss_latency::.cpu0.data    431678997                       # number of overall miss cycles
system.cpu0.dcache.overall_miss_latency::total    431678997                       # number of overall miss cycles
system.cpu0.dcache.overall_miss_rate::.cpu0.data     0.162617                       # miss rate for overall accesses
system.cpu0.dcache.overall_miss_rate::total     0.162617                       # miss rate for overall accesses
system.cpu0.dcache.overall_misses::.cpu0.data         4337                       # number of overall misses
system.cpu0.dcache.overall_misses::total         4337                       # number of overall misses
system.cpu0.dcache.overall_mshr_hits::.cpu0.data         3455                       # number of overall MSHR hits
system.cpu0.dcache.overall_mshr_hits::total         3455                       # number of overall MSHR hits
system.cpu0.dcache.overall_mshr_miss_latency::.cpu0.data     95936000                       # number of overall MSHR miss cycles
system.cpu0.dcache.overall_mshr_miss_latency::total     95936000                       # number of overall MSHR miss cycles
system.cpu0.dcache.overall_mshr_miss_rate::.cpu0.data     0.033071                       # mshr miss rate for overall accesses
system.cpu0.dcache.overall_mshr_miss_rate::total     0.033071                       # mshr miss rate for overall accesses
system.cpu0.dcache.overall_mshr_misses::.cpu0.data          882                       # number of overall MSHR misses
system.cpu0.dcache.overall_mshr_misses::total          882                       # number of overall MSHR misses
system.cpu0.dcache.pwrStateResidencyTicks::UNDEFINED 168958255000                       # Cumulative time (in ticks) in various power states
system.cpu0.dcache.replacements                   189                       # number of replacements
system.cpu0.dcache.tags.age_task_id_blocks_1024::0           20                       # Occupied blocks per task id
system.cpu0.dcache.tags.age_task_id_blocks_1024::4          652                       # Occupied blocks per task id
system.cpu0.dcache.tags.avg_refs            27.066742                       # Average number of references to valid blocks.
system.cpu0.dcache.tags.data_accesses           55642                       # Number of data accesses
system.cpu0.dcache.tags.occ_blocks::.cpu0.data   664.247466                       # Average occupied blocks per requestor
system.cpu0.dcache.tags.occ_percent::.cpu0.data     0.648679                       # Average percentage of cache occupancy
system.cpu0.dcache.tags.occ_percent::total     0.648679                       # Average percentage of cache occupancy
system.cpu0.dcache.tags.occ_task_id_blocks::1024          672                       # Occupied blocks per task id
system.cpu0.dcache.tags.occ_task_id_percent::1024     0.656250                       # Percentage of cache occupancy per task id
system.cpu0.dcache.tags.pwrStateResidencyTicks::UNDEFINED 168958255000                       # Cumulative time (in ticks) in various power states
system.cpu0.dcache.tags.sampled_refs              884                       # Sample count of references to valid blocks.
system.cpu0.dcache.tags.tag_accesses            55642                       # Number of tag accesses
system.cpu0.dcache.tags.tagsinuse          664.247466                       # Cycle average of tags in use
system.cpu0.dcache.tags.total_refs              23927                       # Total number of references to valid blocks.
system.cpu0.dcache.tags.warmup_cycle           345000                       # Cycle when the warmup percentage was hit.
system.cpu0.dcache.writebacks::.writebacks          141                       # number of writebacks
system.cpu0.dcache.writebacks::total              141                       # number of writebacks
system.cpu0.decode.BlockedCycles                37741                       # Number of cycles decode is blocked
system.cpu0.decode.BranchMispred                  462                       # Number of times decode detected a branch misprediction
system.cpu0.decode.BranchResolved                3838                       # Number of times decode resolved a branch
system.cpu0.decode.DecodedInsts                 85668                       # Number of instructions handled by decode
system.cpu0.decode.IdleCycles                   47233                       # Number of cycles decode is idle
system.cpu0.decode.RunCycles                    54886                       # Number of cycles decode is running
system.cpu0.decode.SquashCycles                  3692                       # Number of cycles decode is squashing
system.cpu0.decode.SquashedInsts                  298                       # Number of squashed instructions handled by decode
system.cpu0.decode.UnblockCycles                  947                       # Number of cycles decode is unblocking
system.cpu0.dreamsCommit.IcacheMiss               285                       # Number of Icache Miss happens in the processor, which enables a higher speed up in the architecture.
system.cpu0.dreamsCommit.cacheMisses              345                       # Number of dcache misses running in the dreams architecure
system.cpu0.dreamsCommit.cfgsExecuted            2442                       # Number of configuration executed and counted for perfomance gains
system.cpu0.dreamsCommit.changeContext           2262                       # Number of times the context must be changed
system.cpu0.dreamsCommit.changeContextRatio     0.926290                       # The ratio of change of context on Dreams architecture
system.cpu0.dreamsCommit.commitedOpClass::IntMult            5                       # Class of commit commited instruction on Dreams
system.cpu0.dreamsCommit.commitedOpClass::IntAlu        14158                       # Class of commit commited instruction on Dreams
system.cpu0.dreamsCommit.commitedOpClass::Branch         5858                       # Class of commit commited instruction on Dreams
system.cpu0.dreamsCommit.commitedOpClass::Load         8280                       # Class of commit commited instruction on Dreams
system.cpu0.dreamsCommit.commitedOpClass::Store         6885                       # Class of commit commited instruction on Dreams
system.cpu0.dreamsCommit.executedSuccessfully         2257                       # Number of times of configurations were executedwithout miss speculation
system.cpu0.dreamsCommit.instructionExec        35186                       # Number of instructions executed in the Dreams
system.cpu0.dreamsCommit.ipc::samples            2442                       # IPC for executed configurations
system.cpu0.dreamsCommit.ipc::mean           2.076889                       # IPC for executed configurations
system.cpu0.dreamsCommit.ipc::stdev          0.555683                       # IPC for executed configurations
system.cpu0.dreamsCommit.ipc::underflows            0      0.00%      0.00% # IPC for executed configurations
system.cpu0.dreamsCommit.ipc::0                     0      0.00%      0.00% # IPC for executed configurations
system.cpu0.dreamsCommit.ipc::1                  1048     42.92%     42.92% # IPC for executed configurations
system.cpu0.dreamsCommit.ipc::2                  1122     45.95%     88.86% # IPC for executed configurations
system.cpu0.dreamsCommit.ipc::3                   266     10.89%     99.75% # IPC for executed configurations
system.cpu0.dreamsCommit.ipc::4                     6      0.25%    100.00% # IPC for executed configurations
system.cpu0.dreamsCommit.ipc::overflows             0      0.00%    100.00% # IPC for executed configurations
system.cpu0.dreamsCommit.ipc::min_value             1                       # IPC for executed configurations
system.cpu0.dreamsCommit.ipc::max_value             4                       # IPC for executed configurations
system.cpu0.dreamsCommit.ipc::total              2442                       # IPC for executed configurations
system.cpu0.dreamsCommit.mcpat.cyclesProcessor::samples         2442                       # Number of cycles to execute in SS processor
system.cpu0.dreamsCommit.mcpat.cyclesProcessor::mean 38462.517609                       # Number of cycles to execute in SS processor
system.cpu0.dreamsCommit.mcpat.cyclesProcessor::stdev 1899301.890775                       # Number of cycles to execute in SS processor
system.cpu0.dreamsCommit.mcpat.cyclesProcessor::underflows            0      0.00%      0.00% # Number of cycles to execute in SS processor
system.cpu0.dreamsCommit.mcpat.cyclesProcessor::0-3            0      0.00%      0.00% # Number of cycles to execute in SS processor
system.cpu0.dreamsCommit.mcpat.cyclesProcessor::4-7            0      0.00%      0.00% # Number of cycles to execute in SS processor
system.cpu0.dreamsCommit.mcpat.cyclesProcessor::8-11          171      7.00%      7.00% # Number of cycles to execute in SS processor
system.cpu0.dreamsCommit.mcpat.cyclesProcessor::12-15          500     20.48%     27.48% # Number of cycles to execute in SS processor
system.cpu0.dreamsCommit.mcpat.cyclesProcessor::16-19          404     16.54%     44.02% # Number of cycles to execute in SS processor
system.cpu0.dreamsCommit.mcpat.cyclesProcessor::20-23          289     11.83%     55.86% # Number of cycles to execute in SS processor
system.cpu0.dreamsCommit.mcpat.cyclesProcessor::24-27          236      9.66%     65.52% # Number of cycles to execute in SS processor
system.cpu0.dreamsCommit.mcpat.cyclesProcessor::28-31          232      9.50%     75.02% # Number of cycles to execute in SS processor
system.cpu0.dreamsCommit.mcpat.cyclesProcessor::32           24      0.98%     76.00% # Number of cycles to execute in SS processor
system.cpu0.dreamsCommit.mcpat.cyclesProcessor::overflows          586     24.00%    100.00% # Number of cycles to execute in SS processor
system.cpu0.dreamsCommit.mcpat.cyclesProcessor::min_value            8                       # Number of cycles to execute in SS processor
system.cpu0.dreamsCommit.mcpat.cyclesProcessor::max_value     93857063                       # Number of cycles to execute in SS processor
system.cpu0.dreamsCommit.mcpat.cyclesProcessor::total         2442                       # Number of cycles to execute in SS processor
system.cpu0.dreamsCommit.missSpeculation          185                       # Number of times of miss speculations occur in configurations
system.cpu0.dreamsCommit.missSpeculationRatio     0.075758                       # The ratio of miss speculation on Dreams architecture
system.cpu0.dreamsCommit.missSpeculationTotal          520                       # Number of total of missSpeculation. Do not consider cache miss and slower configurations.
system.cpu0.dreamsCommit.missSpeculationTotalRatio     0.155549                       # The ratio of total miss speculation regardless cache miss and slower configurations
system.cpu0.dreamsCommit.numBranchesCfg::samples         2442                       # Number of Branches in the commited configurations
system.cpu0.dreamsCommit.numBranchesCfg::mean     1.871417                       # Number of Branches in the commited configurations
system.cpu0.dreamsCommit.numBranchesCfg::stdev     0.345644                       # Number of Branches in the commited configurations
system.cpu0.dreamsCommit.numBranchesCfg::underflows            0      0.00%      0.00% # Number of Branches in the commited configurations
system.cpu0.dreamsCommit.numBranchesCfg::0            9      0.37%      0.37% # Number of Branches in the commited configurations
system.cpu0.dreamsCommit.numBranchesCfg::1          296     12.12%     12.49% # Number of Branches in the commited configurations
system.cpu0.dreamsCommit.numBranchesCfg::2         2137     87.51%    100.00% # Number of Branches in the commited configurations
system.cpu0.dreamsCommit.numBranchesCfg::3            0      0.00%    100.00% # Number of Branches in the commited configurations
system.cpu0.dreamsCommit.numBranchesCfg::4            0      0.00%    100.00% # Number of Branches in the commited configurations
system.cpu0.dreamsCommit.numBranchesCfg::5            0      0.00%    100.00% # Number of Branches in the commited configurations
system.cpu0.dreamsCommit.numBranchesCfg::6            0      0.00%    100.00% # Number of Branches in the commited configurations
system.cpu0.dreamsCommit.numBranchesCfg::7            0      0.00%    100.00% # Number of Branches in the commited configurations
system.cpu0.dreamsCommit.numBranchesCfg::8            0      0.00%    100.00% # Number of Branches in the commited configurations
system.cpu0.dreamsCommit.numBranchesCfg::9            0      0.00%    100.00% # Number of Branches in the commited configurations
system.cpu0.dreamsCommit.numBranchesCfg::10            0      0.00%    100.00% # Number of Branches in the commited configurations
system.cpu0.dreamsCommit.numBranchesCfg::overflows            0      0.00%    100.00% # Number of Branches in the commited configurations
system.cpu0.dreamsCommit.numBranchesCfg::min_value            0                       # Number of Branches in the commited configurations
system.cpu0.dreamsCommit.numBranchesCfg::max_value            2                       # Number of Branches in the commited configurations
system.cpu0.dreamsCommit.numBranchesCfg::total         2442                       # Number of Branches in the commited configurations
system.cpu0.dreamsCommit.pe_utilization_overall::samples        13575                       # Number of Pes used considering the time when the CGRA is running
system.cpu0.dreamsCommit.pe_utilization_overall::mean     1.204125                       # Number of Pes used considering the time when the CGRA is running
system.cpu0.dreamsCommit.pe_utilization_overall::stdev     1.165582                       # Number of Pes used considering the time when the CGRA is running
system.cpu0.dreamsCommit.pe_utilization_overall::underflows            0      0.00%      0.00% # Number of Pes used considering the time when the CGRA is running
system.cpu0.dreamsCommit.pe_utilization_overall::0         5134     37.82%     37.82% # Number of Pes used considering the time when the CGRA is running
system.cpu0.dreamsCommit.pe_utilization_overall::1         3520     25.93%     63.75% # Number of Pes used considering the time when the CGRA is running
system.cpu0.dreamsCommit.pe_utilization_overall::2         1937     14.27%     78.02% # Number of Pes used considering the time when the CGRA is running
system.cpu0.dreamsCommit.pe_utilization_overall::3         2984     21.98%    100.00% # Number of Pes used considering the time when the CGRA is running
system.cpu0.dreamsCommit.pe_utilization_overall::4            0      0.00%    100.00% # Number of Pes used considering the time when the CGRA is running
system.cpu0.dreamsCommit.pe_utilization_overall::5            0      0.00%    100.00% # Number of Pes used considering the time when the CGRA is running
system.cpu0.dreamsCommit.pe_utilization_overall::6            0      0.00%    100.00% # Number of Pes used considering the time when the CGRA is running
system.cpu0.dreamsCommit.pe_utilization_overall::7            0      0.00%    100.00% # Number of Pes used considering the time when the CGRA is running
system.cpu0.dreamsCommit.pe_utilization_overall::8            0      0.00%    100.00% # Number of Pes used considering the time when the CGRA is running
system.cpu0.dreamsCommit.pe_utilization_overall::9            0      0.00%    100.00% # Number of Pes used considering the time when the CGRA is running
system.cpu0.dreamsCommit.pe_utilization_overall::10            0      0.00%    100.00% # Number of Pes used considering the time when the CGRA is running
system.cpu0.dreamsCommit.pe_utilization_overall::overflows            0      0.00%    100.00% # Number of Pes used considering the time when the CGRA is running
system.cpu0.dreamsCommit.pe_utilization_overall::min_value            0                       # Number of Pes used considering the time when the CGRA is running
system.cpu0.dreamsCommit.pe_utilization_overall::max_value            3                       # Number of Pes used considering the time when the CGRA is running
system.cpu0.dreamsCommit.pe_utilization_overall::total        13575                       # Number of Pes used considering the time when the CGRA is running
system.cpu0.dreamsCommit.reexec                   180                       # Number of configuration executed one behind another
system.cpu0.dreamsCommit.reexecRatio         0.073710                       # The ratio of reexecution on Dreams architecture
system.cpu0.dreamsCommit.savedCycles::samples         2442                       # Number of saved cycles by dreams
system.cpu0.dreamsCommit.savedCycles::mean 38446.191237                       # Number of saved cycles by dreams
system.cpu0.dreamsCommit.savedCycles::stdev 1899301.654388                       # Number of saved cycles by dreams
system.cpu0.dreamsCommit.savedCycles::underflows            0      0.00%      0.00% # Number of saved cycles by dreams
system.cpu0.dreamsCommit.savedCycles::0-9         1462     59.87%     59.87% # Number of saved cycles by dreams
system.cpu0.dreamsCommit.savedCycles::10-19          572     23.42%     83.29% # Number of saved cycles by dreams
system.cpu0.dreamsCommit.savedCycles::20-29          137      5.61%     88.90% # Number of saved cycles by dreams
system.cpu0.dreamsCommit.savedCycles::30-39          127      5.20%     94.10% # Number of saved cycles by dreams
system.cpu0.dreamsCommit.savedCycles::40-49           72      2.95%     97.05% # Number of saved cycles by dreams
system.cpu0.dreamsCommit.savedCycles::50-59           17      0.70%     97.75% # Number of saved cycles by dreams
system.cpu0.dreamsCommit.savedCycles::60-69           36      1.47%     99.22% # Number of saved cycles by dreams
system.cpu0.dreamsCommit.savedCycles::70-79            9      0.37%     99.59% # Number of saved cycles by dreams
system.cpu0.dreamsCommit.savedCycles::80-89            0      0.00%     99.59% # Number of saved cycles by dreams
system.cpu0.dreamsCommit.savedCycles::90-99            0      0.00%     99.59% # Number of saved cycles by dreams
system.cpu0.dreamsCommit.savedCycles::100            2      0.08%     99.67% # Number of saved cycles by dreams
system.cpu0.dreamsCommit.savedCycles::overflows            8      0.33%    100.00% # Number of saved cycles by dreams
system.cpu0.dreamsCommit.savedCycles::min_value            0                       # Number of saved cycles by dreams
system.cpu0.dreamsCommit.savedCycles::max_value     93857035                       # Number of saved cycles by dreams
system.cpu0.dreamsCommit.savedCycles::total         2442                       # Number of saved cycles by dreams
system.cpu0.dreamsCommit.slower                   556                       # Number of times where the execution on dreams was slower than execution on processor
system.cpu0.dreamsCommit.totalCfg                3343                       # Number total configurations regardless cache miss or slower configuration
system.cpu0.dreamsCommit.totalSavedCycles     93884775                       # Number total of saved cycles by dreams
system.cpu0.dreamsCommitmcpat.cyclesToRunInstructionOnSS     93925468                       # Cycles need to run the instructions mapped on dreams in SS.
system.cpu0.dreamsCommitmcpat.totalCyclesOnDreams        13575                       # system.cpu0.dreamsCommitTotal of cycles running on dreams
system.cpu0.dtb.accesses                            0                       # DTB accesses
system.cpu0.dtb.hits                                0                       # DTB hits
system.cpu0.dtb.misses                              0                       # DTB misses
system.cpu0.dtb.pwrStateResidencyTicks::UNDEFINED 168958255000                       # Cumulative time (in ticks) in various power states
system.cpu0.dtb.read_accesses                       0                       # DTB read accesses
system.cpu0.dtb.read_hits                           0                       # DTB read hits
system.cpu0.dtb.read_misses                         0                       # DTB read misses
system.cpu0.dtb.write_accesses                      0                       # DTB write accesses
system.cpu0.dtb.write_hits                          0                       # DTB write hits
system.cpu0.dtb.write_misses                        0                       # DTB write misses
system.cpu0.fetch.Branches                      20401                       # Number of branches that fetch encountered
system.cpu0.fetch.CacheLines                    25579                       # Number of cache lines fetched
system.cpu0.fetch.Cycles                        91817                       # Number of cycles fetch has run and was not squashing or blocked
system.cpu0.fetch.IcacheSquashes                 1259                       # Number of outstanding Icache misses that were squashed
system.cpu0.fetch.Insts                         98336                       # Number of instructions fetch has processed
system.cpu0.fetch.SquashCycles                   8104                       # Number of cycles fetch has spent squashing
system.cpu0.fetch.branchRate                 0.110216                       # Number of branch fetches per cycle
system.cpu0.fetch.fetchCfg.fetchReadCgf          4401                       # Number of configurations read in the fetch stage
system.cpu0.fetch.fetchCfg.missSpeculation         2257                       # Number of miss speculation
system.cpu0.fetch.icacheStallCycles             48630                       # Number of cycles fetch is stalled on an Icache miss
system.cpu0.fetch.predictedBranches              3620                       # Number of branches that fetch has predicted taken
system.cpu0.fetch.rate                       0.531259                       # Number of inst fetches per cycle
system.cpu0.fetch.rateDist::samples            144499                       # Number of instructions fetched each cycle (Total)
system.cpu0.fetch.rateDist::mean             0.683050                       # Number of instructions fetched each cycle (Total)
system.cpu0.fetch.rateDist::stdev            0.921458                       # Number of instructions fetched each cycle (Total)
system.cpu0.fetch.rateDist::underflows              0      0.00%      0.00% # Number of instructions fetched each cycle (Total)
system.cpu0.fetch.rateDist::0                   76704     53.08%     53.08% # Number of instructions fetched each cycle (Total)
system.cpu0.fetch.rateDist::1                   47993     33.21%     86.30% # Number of instructions fetched each cycle (Total)
system.cpu0.fetch.rateDist::2                   12395      8.58%     94.87% # Number of instructions fetched each cycle (Total)
system.cpu0.fetch.rateDist::3                    3711      2.57%     97.44% # Number of instructions fetched each cycle (Total)
system.cpu0.fetch.rateDist::4                    3696      2.56%    100.00% # Number of instructions fetched each cycle (Total)
system.cpu0.fetch.rateDist::overflows               0      0.00%    100.00% # Number of instructions fetched each cycle (Total)
system.cpu0.fetch.rateDist::min_value               0                       # Number of instructions fetched each cycle (Total)
system.cpu0.fetch.rateDist::max_value               4                       # Number of instructions fetched each cycle (Total)
system.cpu0.fetch.rateDist::total              144499                       # Number of instructions fetched each cycle (Total)
system.cpu0.fetchfetchCfg.endSuccessfully         2144                       # Number of times the configuration ended with no missSpeculation
system.cpu0.fp_regfile_reads                       12                       # number of floating regfile reads
system.cpu0.fp_regfile_writes                       0                       # number of floating regfile writes
system.cpu0.icache.ReadReq_accesses::.cpu0.inst        25579                       # number of ReadReq accesses(hits+misses)
system.cpu0.icache.ReadReq_accesses::total        25579                       # number of ReadReq accesses(hits+misses)
system.cpu0.icache.ReadReq_avg_miss_latency::.cpu0.inst 64534.948097                       # average ReadReq miss latency
system.cpu0.icache.ReadReq_avg_miss_latency::total 64534.948097                       # average ReadReq miss latency
system.cpu0.icache.ReadReq_avg_mshr_miss_latency::.cpu0.inst 63036.209553                       # average ReadReq mshr miss latency
system.cpu0.icache.ReadReq_avg_mshr_miss_latency::total 63036.209553                       # average ReadReq mshr miss latency
system.cpu0.icache.ReadReq_hits::.cpu0.inst        24134                       # number of ReadReq hits
system.cpu0.icache.ReadReq_hits::total          24134                       # number of ReadReq hits
system.cpu0.icache.ReadReq_miss_latency::.cpu0.inst     93253000                       # number of ReadReq miss cycles
system.cpu0.icache.ReadReq_miss_latency::total     93253000                       # number of ReadReq miss cycles
system.cpu0.icache.ReadReq_miss_rate::.cpu0.inst     0.056492                       # miss rate for ReadReq accesses
system.cpu0.icache.ReadReq_miss_rate::total     0.056492                       # miss rate for ReadReq accesses
system.cpu0.icache.ReadReq_misses::.cpu0.inst         1445                       # number of ReadReq misses
system.cpu0.icache.ReadReq_misses::total         1445                       # number of ReadReq misses
system.cpu0.icache.ReadReq_mshr_hits::.cpu0.inst          147                       # number of ReadReq MSHR hits
system.cpu0.icache.ReadReq_mshr_hits::total          147                       # number of ReadReq MSHR hits
system.cpu0.icache.ReadReq_mshr_miss_latency::.cpu0.inst     81821000                       # number of ReadReq MSHR miss cycles
system.cpu0.icache.ReadReq_mshr_miss_latency::total     81821000                       # number of ReadReq MSHR miss cycles
system.cpu0.icache.ReadReq_mshr_miss_rate::.cpu0.inst     0.050745                       # mshr miss rate for ReadReq accesses
system.cpu0.icache.ReadReq_mshr_miss_rate::total     0.050745                       # mshr miss rate for ReadReq accesses
system.cpu0.icache.ReadReq_mshr_misses::.cpu0.inst         1298                       # number of ReadReq MSHR misses
system.cpu0.icache.ReadReq_mshr_misses::total         1298                       # number of ReadReq MSHR misses
system.cpu0.icache.avg_blocked_cycles::no_mshrs    43.500000                       # average number of cycles each access was blocked
system.cpu0.icache.avg_blocked_cycles::no_targets          nan                       # average number of cycles each access was blocked
system.cpu0.icache.blocked::no_mshrs                2                       # number of cycles access was blocked
system.cpu0.icache.blocked::no_targets              0                       # number of cycles access was blocked
system.cpu0.icache.blocked_cycles::no_mshrs           87                       # number of cycles access was blocked
system.cpu0.icache.blocked_cycles::no_targets            0                       # number of cycles access was blocked
system.cpu0.icache.demand_accesses::.cpu0.inst        25579                       # number of demand (read+write) accesses
system.cpu0.icache.demand_accesses::total        25579                       # number of demand (read+write) accesses
system.cpu0.icache.demand_avg_miss_latency::.cpu0.inst 64534.948097                       # average overall miss latency
system.cpu0.icache.demand_avg_miss_latency::total 64534.948097                       # average overall miss latency
system.cpu0.icache.demand_avg_mshr_miss_latency::.cpu0.inst 63036.209553                       # average overall mshr miss latency
system.cpu0.icache.demand_avg_mshr_miss_latency::total 63036.209553                       # average overall mshr miss latency
system.cpu0.icache.demand_hits::.cpu0.inst        24134                       # number of demand (read+write) hits
system.cpu0.icache.demand_hits::total           24134                       # number of demand (read+write) hits
system.cpu0.icache.demand_miss_latency::.cpu0.inst     93253000                       # number of demand (read+write) miss cycles
system.cpu0.icache.demand_miss_latency::total     93253000                       # number of demand (read+write) miss cycles
system.cpu0.icache.demand_miss_rate::.cpu0.inst     0.056492                       # miss rate for demand accesses
system.cpu0.icache.demand_miss_rate::total     0.056492                       # miss rate for demand accesses
system.cpu0.icache.demand_misses::.cpu0.inst         1445                       # number of demand (read+write) misses
system.cpu0.icache.demand_misses::total          1445                       # number of demand (read+write) misses
system.cpu0.icache.demand_mshr_hits::.cpu0.inst          147                       # number of demand (read+write) MSHR hits
system.cpu0.icache.demand_mshr_hits::total          147                       # number of demand (read+write) MSHR hits
system.cpu0.icache.demand_mshr_miss_latency::.cpu0.inst     81821000                       # number of demand (read+write) MSHR miss cycles
system.cpu0.icache.demand_mshr_miss_latency::total     81821000                       # number of demand (read+write) MSHR miss cycles
system.cpu0.icache.demand_mshr_miss_rate::.cpu0.inst     0.050745                       # mshr miss rate for demand accesses
system.cpu0.icache.demand_mshr_miss_rate::total     0.050745                       # mshr miss rate for demand accesses
system.cpu0.icache.demand_mshr_misses::.cpu0.inst         1298                       # number of demand (read+write) MSHR misses
system.cpu0.icache.demand_mshr_misses::total         1298                       # number of demand (read+write) MSHR misses
system.cpu0.icache.overall_accesses::.cpu0.inst        25579                       # number of overall (read+write) accesses
system.cpu0.icache.overall_accesses::total        25579                       # number of overall (read+write) accesses
system.cpu0.icache.overall_avg_miss_latency::.cpu0.inst 64534.948097                       # average overall miss latency
system.cpu0.icache.overall_avg_miss_latency::total 64534.948097                       # average overall miss latency
system.cpu0.icache.overall_avg_mshr_miss_latency::.cpu0.inst 63036.209553                       # average overall mshr miss latency
system.cpu0.icache.overall_avg_mshr_miss_latency::total 63036.209553                       # average overall mshr miss latency
system.cpu0.icache.overall_hits::.cpu0.inst        24134                       # number of overall hits
system.cpu0.icache.overall_hits::total          24134                       # number of overall hits
system.cpu0.icache.overall_miss_latency::.cpu0.inst     93253000                       # number of overall miss cycles
system.cpu0.icache.overall_miss_latency::total     93253000                       # number of overall miss cycles
system.cpu0.icache.overall_miss_rate::.cpu0.inst     0.056492                       # miss rate for overall accesses
system.cpu0.icache.overall_miss_rate::total     0.056492                       # miss rate for overall accesses
system.cpu0.icache.overall_misses::.cpu0.inst         1445                       # number of overall misses
system.cpu0.icache.overall_misses::total         1445                       # number of overall misses
system.cpu0.icache.overall_mshr_hits::.cpu0.inst          147                       # number of overall MSHR hits
system.cpu0.icache.overall_mshr_hits::total          147                       # number of overall MSHR hits
system.cpu0.icache.overall_mshr_miss_latency::.cpu0.inst     81821000                       # number of overall MSHR miss cycles
system.cpu0.icache.overall_mshr_miss_latency::total     81821000                       # number of overall MSHR miss cycles
system.cpu0.icache.overall_mshr_miss_rate::.cpu0.inst     0.050745                       # mshr miss rate for overall accesses
system.cpu0.icache.overall_mshr_miss_rate::total     0.050745                       # mshr miss rate for overall accesses
system.cpu0.icache.overall_mshr_misses::.cpu0.inst         1298                       # number of overall MSHR misses
system.cpu0.icache.overall_mshr_misses::total         1298                       # number of overall MSHR misses
system.cpu0.icache.pwrStateResidencyTicks::UNDEFINED 168958255000                       # Cumulative time (in ticks) in various power states
system.cpu0.icache.replacements                  1051                       # number of replacements
system.cpu0.icache.tags.age_task_id_blocks_1024::0           55                       # Occupied blocks per task id
system.cpu0.icache.tags.age_task_id_blocks_1024::4          190                       # Occupied blocks per task id
system.cpu0.icache.tags.avg_refs            19.621914                       # Average number of references to valid blocks.
system.cpu0.icache.tags.data_accesses           52454                       # Number of data accesses
system.cpu0.icache.tags.occ_blocks::.cpu0.inst   240.512890                       # Average occupied blocks per requestor
system.cpu0.icache.tags.occ_percent::.cpu0.inst     0.939503                       # Average percentage of cache occupancy
system.cpu0.icache.tags.occ_percent::total     0.939503                       # Average percentage of cache occupancy
system.cpu0.icache.tags.occ_task_id_blocks::1024          245                       # Occupied blocks per task id
system.cpu0.icache.tags.occ_task_id_percent::1024     0.957031                       # Percentage of cache occupancy per task id
system.cpu0.icache.tags.pwrStateResidencyTicks::UNDEFINED 168958255000                       # Cumulative time (in ticks) in various power states
system.cpu0.icache.tags.sampled_refs             1296                       # Sample count of references to valid blocks.
system.cpu0.icache.tags.tag_accesses            52454                       # Number of tag accesses
system.cpu0.icache.tags.tagsinuse          240.512890                       # Cycle average of tags in use
system.cpu0.icache.tags.total_refs              25430                       # Total number of references to valid blocks.
system.cpu0.icache.tags.warmup_cycle           107000                       # Cycle when the warmup percentage was hit.
system.cpu0.icache.writebacks::.writebacks         1051                       # number of writebacks
system.cpu0.icache.writebacks::total             1051                       # number of writebacks
system.cpu0.idleCycles                          40601                       # Total number of cycles that the CPU has spent unscheduled due to idling
system.cpu0.iew.branchMispredicts                3870                       # Number of branch mispredicts detected at execute
system.cpu0.iew.exec_branches                   13712                       # Number of branches executed
system.cpu0.iew.exec_nop                            0                       # number of nop insts executed
system.cpu0.iew.exec_rate                    0.376056                       # Inst execution rate
system.cpu0.iew.exec_refs                       27930                       # number of memory reference insts executed
system.cpu0.iew.exec_stores                     12662                       # Number of stores executed
system.cpu0.iew.exec_swp                            0                       # number of swp insts executed
system.cpu0.iew.iewBlockCycles                    509                       # Number of cycles IEW is blocking
system.cpu0.iew.iewDispLoadInsts                16013                       # Number of dispatched load instructions
system.cpu0.iew.iewDispNonSpecInsts               790                       # Number of dispatched non-speculative instructions
system.cpu0.iew.iewDispSquashedInsts             3383                       # Number of squashed instructions skipped by dispatch
system.cpu0.iew.iewDispStoreInsts               13184                       # Number of dispatched store instructions
system.cpu0.iew.iewDispatchedInsts              73827                       # Number of instructions dispatched to IQ
system.cpu0.iew.iewExecLoadInsts                15268                       # Number of load instructions executed
system.cpu0.iew.iewExecSquashedInsts             2507                       # Number of squashed instructions skipped in execute
system.cpu0.iew.iewExecutedInsts                69608                       # Number of executed instructions
system.cpu0.iew.iewIQFullEvents                     3                       # Number of times the IQ has become full, causing a stall
system.cpu0.iew.iewIdleCycles                       0                       # Number of cycles IEW is idle
system.cpu0.iew.iewLSQFullEvents                 9964                       # Number of times the LSQ has become full, causing a stall
system.cpu0.iew.iewSquashCycles                  3692                       # Number of cycles IEW is squashing
system.cpu0.iew.iewUnblockCycles                 9975                       # Number of cycles IEW is unblocking
system.cpu0.iew.lsq.thread0.blockedLoads            0                       # Number of blocked loads due to partial load-store forwarding
system.cpu0.iew.lsq.thread0.cacheBlocked           14                       # Number of times an access to memory failed due to the cache being blocked
system.cpu0.iew.lsq.thread0.forwLoads              53                       # Number of loads that had data forwarded from stores
system.cpu0.iew.lsq.thread0.ignoredResponses            5                       # Number of memory responses ignored because the instruction is squashed
system.cpu0.iew.lsq.thread0.invAddrLoads            0                       # Number of loads ignored due to an invalid address
system.cpu0.iew.lsq.thread0.invAddrSwpfs            0                       # Number of software prefetches ignored due to an invalid address
system.cpu0.iew.lsq.thread0.memOrderViolation            1                       # Number of memory ordering violations
system.cpu0.iew.lsq.thread0.rescheduledLoads            1                       # Number of loads that were rescheduled
system.cpu0.iew.lsq.thread0.squashedLoads         2264                       # Number of loads squashed
system.cpu0.iew.lsq.thread0.squashedStores          914                       # Number of stores squashed
system.cpu0.iew.memOrderViolationEvents             1                       # Number of memory order violations
system.cpu0.iew.predictedNotTakenIncorrect         3822                       # Number of branches that were predicted not taken incorrectly
system.cpu0.iew.predictedTakenIncorrect            48                       # Number of branches that were predicted taken incorrectly
system.cpu0.iew.wb_consumers                    21325                       # num instructions consuming a value
system.cpu0.iew.wb_count                        68287                       # cumulative count of insts written-back
system.cpu0.iew.wb_fanout                    0.865791                       # average fanout of values written-back
system.cpu0.iew.wb_producers                    18463                       # num instructions producing a value
system.cpu0.iew.wb_rate                      0.368920                       # insts written-back per cycle
system.cpu0.iew.wb_sent                         68638                       # cumulative count of insts sent to commit
system.cpu0.int_regfile_reads                   86296                       # number of integer regfile reads
system.cpu0.int_regfile_writes                  43673                       # number of integer regfile writes
system.cpu0.ipc                              0.337256                       # IPC: Instructions Per Cycle
system.cpu0.ipc_total                        0.337256                       # IPC: Total IPC of All Threads
system.cpu0.iq.FU_type_0::No_OpClass              685      0.95%      0.95% # Type of FU issued
system.cpu0.iq.FU_type_0::IntAlu                42557     59.01%     59.96% # Type of FU issued
system.cpu0.iq.FU_type_0::IntMult                  39      0.05%     60.02% # Type of FU issued
system.cpu0.iq.FU_type_0::IntDiv                   75      0.10%     60.12% # Type of FU issued
system.cpu0.iq.FU_type_0::FloatAdd                  0      0.00%     60.12% # Type of FU issued
[...]
system.mem_ctrl.readPktSize::4                      0                       # Read request sizes (log2)
system.mem_ctrl.readPktSize::5                      0                       # Read request sizes (log2)
system.mem_ctrl.readPktSize::6                 110807                       # Read request sizes (log2)
system.mem_ctrl.readReqs                       110807                       # Number of read requests accepted
system.mem_ctrl.readRowHitRate                  46.32                       # Row buffer hit rate for reads
system.mem_ctrl.readRowHits                     51269                       # Number of row buffer hits during reads
system.mem_ctrl.servicedByWrQ                     133                       # Number of DRAM read bursts serviced by the write queue
system.mem_ctrl.totBusLat                   553370000                       # Total ticks spent in databus transfers
system.mem_ctrl.totGap                   168958179000                       # Total gap between requests
system.mem_ctrl.totMemAccLat               5278011250                       # Total ticks spent from burst creation until serviced by the DRAM
system.mem_ctrl.totQLat                    3202873750                       # Total ticks spent queuing
system.mem_ctrl.wrPerTurnAround::samples           13                       # Writes before turning the bus around for reads
system.mem_ctrl.wrPerTurnAround::mean              18                       # Writes before turning the bus around for reads
system.mem_ctrl.wrPerTurnAround::gmean      18.000000                       # Writes before turning the bus around for reads
system.mem_ctrl.wrPerTurnAround::18                13    100.00%    100.00% # Writes before turning the bus around for reads
system.mem_ctrl.wrPerTurnAround::total             13                       # Writes before turning the bus around for reads
system.mem_ctrl.wrQLenPdf::0                        1                       # What write queue length does an incoming req see
system.mem_ctrl.wrQLenPdf::1                        1                       # What write queue length does an incoming req see
system.mem_ctrl.wrQLenPdf::2                        1                       # What write queue length does an incoming req see
system.mem_ctrl.wrQLenPdf::3                        1                       # What write queue length does an incoming req see
system.mem_ctrl.wrQLenPdf::4                        1                       # What write queue length does an incoming req see
system.mem_ctrl.wrQLenPdf::5                        1                       # What write queue length does an incoming req see
system.mem_ctrl.wrQLenPdf::6                        1                       # What write queue length does an incoming req see
system.mem_ctrl.wrQLenPdf::7                        1                       # What write queue length does an incoming req see
system.mem_ctrl.wrQLenPdf::8                        1                       # What write queue length does an incoming req see
system.mem_ctrl.wrQLenPdf::9                        1                       # What write queue length does an incoming req see
system.mem_ctrl.wrQLenPdf::10                       1                       # What write queue length does an incoming req see
system.mem_ctrl.wrQLenPdf::11                       1                       # What write queue length does an incoming req see
system.mem_ctrl.wrQLenPdf::12                       1                       # What write queue length does an incoming req see
system.mem_ctrl.wrQLenPdf::13                       1                       # What write queue length does an incoming req see
system.mem_ctrl.wrQLenPdf::14                       1                       # What write queue length does an incoming req see
system.mem_ctrl.wrQLenPdf::15                      14                       # What write queue length does an incoming req see
system.mem_ctrl.wrQLenPdf::16                      14                       # What write queue length does an incoming req see
system.mem_ctrl.wrQLenPdf::17                      14                       # What write queue length does an incoming req see
system.mem_ctrl.wrQLenPdf::18                      14                       # What write queue length does an incoming req see
system.mem_ctrl.wrQLenPdf::19                      14                       # What write queue length does an incoming req see
system.mem_ctrl.wrQLenPdf::20                      14                       # What write queue length does an incoming req see
system.mem_ctrl.wrQLenPdf::21                      14                       # What write queue length does an incoming req see
system.mem_ctrl.wrQLenPdf::22                      14                       # What write queue length does an incoming req see
system.mem_ctrl.wrQLenPdf::23                      14                       # What write queue length does an incoming req see
system.mem_ctrl.wrQLenPdf::24                      14                       # What write queue length does an incoming req see
system.mem_ctrl.wrQLenPdf::25                      13                       # What write queue length does an incoming req see
system.mem_ctrl.wrQLenPdf::26                      13                       # What write queue length does an incoming req see
system.mem_ctrl.wrQLenPdf::27                      13                       # What write queue length does an incoming req see
system.mem_ctrl.wrQLenPdf::28                      13                       # What write queue length does an incoming req see
system.mem_ctrl.wrQLenPdf::29                      13                       # What write queue length does an incoming req see
system.mem_ctrl.wrQLenPdf::30                      13                       # What write queue length does an incoming req see
system.mem_ctrl.wrQLenPdf::31                      13                       # What write queue length does an incoming req see
system.mem_ctrl.wrQLenPdf::32                      13                       # What write queue length does an incoming req see
system.mem_ctrl.wrQLenPdf::33                       0                       # What write queue length does an incoming req see
system.mem_ctrl.wrQLenPdf::34                       0                       # What write queue length does an incoming req see
system.mem_ctrl.wrQLenPdf::35                       0                       # What write queue length does an incoming req see
system.mem_ctrl.wrQLenPdf::36                       0                       # What write queue length does an incoming req see
system.mem_ctrl.wrQLenPdf::37                       0                       # What write queue length does an incoming req see
system.mem_ctrl.wrQLenPdf::38                       0                       # What write queue length does an incoming req see
system.mem_ctrl.wrQLenPdf::39                       0                       # What write queue length does an incoming req see
system.mem_ctrl.wrQLenPdf::40                       0                       # What write queue length does an incoming req see
system.mem_ctrl.wrQLenPdf::41                       0                       # What write queue length does an incoming req see
system.mem_ctrl.wrQLenPdf::42                       0                       # What write queue length does an incoming req see
system.mem_ctrl.wrQLenPdf::43                       0                       # What write queue length does an incoming req see
system.mem_ctrl.wrQLenPdf::44                       0                       # What write queue length does an incoming req see
system.mem_ctrl.wrQLenPdf::45                       0                       # What write queue length does an incoming req see
system.mem_ctrl.wrQLenPdf::46                       0                       # What write queue length does an incoming req see
system.mem_ctrl.wrQLenPdf::47                       0                       # What write queue length does an incoming req see
system.mem_ctrl.wrQLenPdf::48                       0                       # What write queue length does an incoming req see
system.mem_ctrl.wrQLenPdf::49                       0                       # What write queue length does an incoming req see
system.mem_ctrl.wrQLenPdf::50                       0                       # What write queue length does an incoming req see
system.mem_ctrl.wrQLenPdf::51                       0                       # What write queue length does an incoming req see
system.mem_ctrl.wrQLenPdf::52                       0                       # What write queue length does an incoming req see
system.mem_ctrl.wrQLenPdf::53                       0                       # What write queue length does an incoming req see
system.mem_ctrl.wrQLenPdf::54                       0                       # What write queue length does an incoming req see
system.mem_ctrl.wrQLenPdf::55                       0                       # What write queue length does an incoming req see
system.mem_ctrl.wrQLenPdf::56                       0                       # What write queue length does an incoming req see
system.mem_ctrl.wrQLenPdf::57                       0                       # What write queue length does an incoming req see
system.mem_ctrl.wrQLenPdf::58                       0                       # What write queue length does an incoming req see
system.mem_ctrl.wrQLenPdf::59                       0                       # What write queue length does an incoming req see
system.mem_ctrl.wrQLenPdf::60                       0                       # What write queue length does an incoming req see
system.mem_ctrl.wrQLenPdf::61                       0                       # What write queue length does an incoming req see
system.mem_ctrl.wrQLenPdf::62                       0                       # What write queue length does an incoming req see
system.mem_ctrl.wrQLenPdf::63                       0                       # What write queue length does an incoming req see
system.mem_ctrl.writeBursts                       339                       # Number of DRAM write bursts, including those merged in the write queue
system.mem_ctrl.writePktSize::0                     0                       # Write request sizes (log2)
system.mem_ctrl.writePktSize::1                     0                       # Write request sizes (log2)
system.mem_ctrl.writePktSize::2                     0                       # Write request sizes (log2)
system.mem_ctrl.writePktSize::3                     0                       # Write request sizes (log2)
system.mem_ctrl.writePktSize::4                     0                       # Write request sizes (log2)
system.mem_ctrl.writePktSize::5                     0                       # Write request sizes (log2)
system.mem_ctrl.writePktSize::6                   339                       # Write request sizes (log2)
system.mem_ctrl.writeReqs                         339                       # Number of write requests accepted
system.mem_ctrl.writeRowHitRate                 61.78                       # Row buffer hit rate for writes
system.mem_ctrl.writeRowHits                      160                       # Number of row buffer hits during writes
system.mem_ctrl_0.actBackEnergy            2260895880                       # Energy for active background per rank (pJ)
system.mem_ctrl_0.actEnergy                 214642680                       # Energy for activate commands per rank (pJ)
system.mem_ctrl_0.actPowerDownEnergy      37920978240                       # Energy for active power-down per rank (pJ)
system.mem_ctrl_0.averagePower             416.279111                       # Core power per rank (mW)
system.mem_ctrl_0.memoryStateTime::IDLE      88925000                       # Time in different power states
system.mem_ctrl_0.memoryStateTime::REF     3398720000                       # Time in different power states
system.mem_ctrl_0.memoryStateTime::SREF   67158973500                       # Time in different power states
system.mem_ctrl_0.memoryStateTime::PRE_PDN  13152734500                       # Time in different power states
system.mem_ctrl_0.memoryStateTime::ACT     1997121250                       # Time in different power states
system.mem_ctrl_0.memoryStateTime::ACT_PDN  83161780750                       # Time in different power states
system.mem_ctrl_0.preBackEnergy             202754400                       # Energy for precharge background per rank (pJ)
system.mem_ctrl_0.preEnergy                 114073905                       # Energy for precharge commands per rank (pJ)
system.mem_ctrl_0.prePowerDownEnergy       5050801920                       # Energy for precharge power-down per rank (pJ)
system.mem_ctrl_0.readEnergy                394649220                       # Energy for read commands per rank (pJ)
system.mem_ctrl_0.refreshEnergy          8034574080.000001                       # Energy for refresh commands per rank (pJ)
system.mem_ctrl_0.selfRefreshEnergy       16139691060                       # Energy for self refresh per rank (pJ)
system.mem_ctrl_0.totalEnergy             70333792185                       # Total energy per rank (pJ)
system.mem_ctrl_0.totalIdleTime          163473418500                       # Total Idle time Per DRAM Rank
system.mem_ctrl_0.writeEnergy                  730800                       # Energy for write commands per rank (pJ)
system.mem_ctrl_1.actBackEnergy            2246025720                       # Energy for active background per rank (pJ)
system.mem_ctrl_1.actEnergy                 210037380                       # Energy for activate commands per rank (pJ)
system.mem_ctrl_1.actPowerDownEnergy      37849614810                       # Energy for active power-down per rank (pJ)
system.mem_ctrl_1.averagePower             415.903000                       # Core power per rank (mW)
system.mem_ctrl_1.memoryStateTime::IDLE      89275000                       # Time in different power states
system.mem_ctrl_1.memoryStateTime::REF     3392220000                       # Time in different power states
system.mem_ctrl_1.memoryStateTime::SREF   67354685750                       # Time in different power states
system.mem_ctrl_1.memoryStateTime::PRE_PDN  13149271000                       # Time in different power states
system.mem_ctrl_1.memoryStateTime::ACT     1969394250                       # Time in different power states
system.mem_ctrl_1.memoryStateTime::ACT_PDN  83003409000                       # Time in different power states
system.mem_ctrl_1.preBackEnergy             201912960                       # Energy for precharge background per rank (pJ)
system.mem_ctrl_1.preEnergy                 111622335                       # Energy for precharge commands per rank (pJ)
system.mem_ctrl_1.prePowerDownEnergy       5049108480                       # Energy for precharge power-down per rank (pJ)
system.mem_ctrl_1.readEnergy                395563140                       # Energy for read commands per rank (pJ)
system.mem_ctrl_1.refreshEnergy          8019208080.000001                       # Energy for refresh commands per rank (pJ)
system.mem_ctrl_1.selfRefreshEnergy       16186661460                       # Energy for self refresh per rank (pJ)
system.mem_ctrl_1.totalEnergy             70270245045                       # Total energy per rank (pJ)
system.mem_ctrl_1.totalIdleTime          163507351250                       # Total Idle time Per DRAM Rank
system.mem_ctrl_1.writeEnergy                  490680                       # Energy for write commands per rank (pJ)
system.membus.pkt_count_system.l2cache.mem_side::system.mem_ctrl.port       325192                       # Packet count per connected master and slave (bytes)
system.membus.pkt_count::total                 325192                       # Packet count per connected master and slave (bytes)
system.membus.pkt_size_system.l2cache.mem_side::system.mem_ctrl.port      7113280                       # Cumulative packet size per connected master and slave (bytes)
system.membus.pkt_size::total                 7113280                       # Cumulative packet size per connected master and slave (bytes)
system.membus.pwrStateResidencyTicks::UNDEFINED 168958255000                       # Cumulative time (in ticks) in various power states
system.membus.reqLayer0.occupancy           215704000                       # Layer occupancy (ticks)
system.membus.reqLayer0.utilization               0.1                       # Layer utilization (%)
system.membus.respLayer0.occupancy          599883250                       # Layer occupancy (ticks)
system.membus.respLayer0.utilization              0.4                       # Layer utilization (%)
system.membus.snoopTraffic                          0                       # Total snoop traffic (bytes)
system.membus.snoop_fanout::samples            110847                       # Request fanout histogram
system.membus.snoop_fanout::mean                    0                       # Request fanout histogram
system.membus.snoop_fanout::stdev                   0                       # Request fanout histogram
system.membus.snoop_fanout::underflows              0      0.00%      0.00% # Request fanout histogram
system.membus.snoop_fanout::0                  110847    100.00%    100.00% # Request fanout histogram
system.membus.snoop_fanout::1                       0      0.00%    100.00% # Request fanout histogram
system.membus.snoop_fanout::overflows               0      0.00%    100.00% # Request fanout histogram
system.membus.snoop_fanout::min_value               0                       # Request fanout histogram
system.membus.snoop_fanout::max_value               0                       # Request fanout histogram
system.membus.snoop_fanout::total              110847                       # Request fanout histogram
system.membus.snoop_filter.hit_multi_requests            0                       # Number of requests hitting in the snoop filter with multiple (>1) holders of the requested data.
system.membus.snoop_filter.hit_multi_snoops            0                       # Number of snoops hitting in the snoop filter with multiple (>1) holders of the requested data.
system.membus.snoop_filter.hit_single_requests       103845                       # Number of requests hitting in the snoop filter with a single holder of the requested data.
system.membus.snoop_filter.hit_single_snoops            0                       # Number of snoops hitting in the snoop filter with a single holder of the requested data.
system.membus.snoop_filter.tot_requests        214386                       # Total number of requests made to the snoop filter.
system.membus.snoop_filter.tot_snoops               0                       # Total number of snoops made to the snoop filter.
system.membus.snoops                               38                       # Total snoops (count)
system.membus.trans_dist::ReadResp             110033                       # Transaction distribution
system.membus.trans_dist::WritebackDirty          339                       # Transaction distribution
system.membus.trans_dist::CleanEvict           103200                       # Transaction distribution
system.membus.trans_dist::UpgradeReq               31                       # Transaction distribution
system.membus.trans_dist::SCUpgradeReq              8                       # Transaction distribution
system.membus.trans_dist::ReadExReq               774                       # Transaction distribution
system.membus.trans_dist::ReadExResp              773                       # Transaction distribution
system.membus.trans_dist::ReadSharedReq        110034                       # Transaction distribution
system.pwrStateResidencyTicks::UNDEFINED 168958255000                       # Cumulative time (in ticks) in various power states

---------- End Simulation Statistics   ----------
