
---------- Begin Simulation Statistics ----------
final_tick                               168944273000                       # Number of ticks from beginning of simulation (restored from checkpoints and never reset)
host_inst_rate                                 129269                       # Simulator instruction rate (inst/s)
host_mem_usage                                 703876                       # Number of bytes of host memory used
host_op_rate                                   129269                       # Simulator op (including micro ops) rate (op/s)
host_seconds                                  2235.67                       # Real time elapsed on the host
host_tick_rate                               75567718                       # Simulator tick rate (ticks/s)
sim_freq                                 1000000000000                       # Frequency of simulated ticks
sim_insts                                   289002977                       # Number of instructions simulated
sim_ops                                     289003338                       # Number of ops (including micro ops) simulated
sim_seconds                                  0.168944                       # Number of seconds simulated
sim_ticks                                168944273000                       # Number of ticks simulated
system.clk_domain.clock                          1000                       # Clock period in ticks
system.clk_domain.voltage_domain.voltage            1                       # Voltage in Volts
system.cpu0.branchPred.BTBCorrect                   0                       # Number of correct BTB predictions (this stat may not work properly.
system.cpu0.branchPred.BTBHitPct            40.913811                       # BTB Hit Percentage
system.cpu0.branchPred.BTBHits                   3546                       # Number of BTB hits
system.cpu0.branchPred.BTBLookups                8667                       # Number of BTB lookups
system.cpu0.branchPred.RASInCorrect                 0                       # Number of incorrect RAS predictions.
system.cpu0.branchPred.condIncorrect             3870                       # Number of conditional branches incorrect
system.cpu0.branchPred.condPredicted            14164                       # Number of conditional branches predicted
system.cpu0.branchPred.indirectHits                65                       # Number of indirect target hits.
system.cpu0.branchPred.indirectLookups           4281                       # Number of indirect predictor lookups.
system.cpu0.branchPred.indirectMisses            4216                       # Number of indirect misses.
system.cpu0.branchPred.lookups                  20571                       # Number of BP lookups
system.cpu0.branchPred.usedRAS                      0                       # Number of times the RAS was used to get a target.
system.cpu0.branchPredindirectMispredicted         2092                       # Number of mispredicted indirect branches.
system.cpu0.bt.discartedCfgs                     2101                       # Number of discated configuration
system.cpu0.bt.endResource                          0                       # Number of configurations ended by lack of resource
system.cpu0.bt.endSpeculation                    1385                       # Number of configurations ended due to reach the speculation limit
system.cpu0.bt.endUnknownInst                     572                       # Number of configurations ended due a unknown instruction
system.cpu0.bt.insts::samples                    1784                       # Number of instructions mapped in this configuration
system.cpu0.bt.insts::mean                  12.805493                       # Number of instructions mapped in this configuration
system.cpu0.bt.insts::stdev                  8.328623                       # Number of instructions mapped in this configuration
system.cpu0.bt.insts::underflows                    0      0.00%      0.00% # Number of instructions mapped in this configuration
system.cpu0.bt.insts::0                             0      0.00%      0.00% # Number of instructions mapped in this configuration
system.cpu0.bt.insts::1                             0      0.00%      0.00% # Number of instructions mapped in this configuration
system.cpu0.bt.insts::2                             0      0.00%      0.00% # Number of instructions mapped in this configuration
system.cpu0.bt.insts::3                             0      0.00%      0.00% # Number of instructions mapped in this configuration
system.cpu0.bt.insts::4                           114      6.39%      6.39% # Number of instructions mapped in this configuration
system.cpu0.bt.insts::5                           101      5.66%     12.05% # Number of instructions mapped in this configuration
system.cpu0.bt.insts::6                           205     11.49%     23.54% # Number of instructions mapped in this configuration
system.cpu0.bt.insts::7                           104      5.83%     29.37% # Number of instructions mapped in this configuration
system.cpu0.bt.insts::8                           147      8.24%     37.61% # Number of instructions mapped in this configuration
system.cpu0.bt.insts::9                            95      5.33%     42.94% # Number of instructions mapped in this configuration
system.cpu0.bt.insts::10                           45      2.52%     45.46% # Number of instructions mapped in this configuration
system.cpu0.bt.insts::11                          156      8.74%     54.20% # Number of instructions mapped in this configuration
system.cpu0.bt.insts::12                           80      4.48%     58.69% # Number of instructions mapped in this configuration
system.cpu0.bt.insts::13                           91      5.10%     63.79% # Number of instructions mapped in this configuration
system.cpu0.bt.insts::14                           37      2.07%     65.86% # Number of instructions mapped in this configuration
system.cpu0.bt.insts::15                           63      3.53%     69.39% # Number of instructions mapped in this configuration
system.cpu0.bt.insts::16                           86      4.82%     74.22% # Number of instructions mapped in this configuration
system.cpu0.bt.insts::17                          113      6.33%     80.55% # Number of instructions mapped in this configuration
system.cpu0.bt.insts::18                           20      1.12%     81.67% # Number of instructions mapped in this configuration
system.cpu0.bt.insts::19                           66      3.70%     85.37% # Number of instructions mapped in this configuration
system.cpu0.bt.insts::20                           45      2.52%     87.89% # Number of instructions mapped in this configuration
system.cpu0.bt.insts::21                           13      0.73%     88.62% # Number of instructions mapped in this configuration
system.cpu0.bt.insts::22                           18      1.01%     89.63% # Number of instructions mapped in this configuration
system.cpu0.bt.insts::23                           24      1.35%     90.98% # Number of instructions mapped in this configuration
system.cpu0.bt.insts::24                           19      1.07%     92.04% # Number of instructions mapped in this configuration
system.cpu0.bt.insts::25                           33      1.85%     93.89% # Number of instructions mapped in this configuration
system.cpu0.bt.insts::26                           16      0.90%     94.79% # Number of instructions mapped in this configuration
system.cpu0.bt.insts::27                            7      0.39%     95.18% # Number of instructions mapped in this configuration
system.cpu0.bt.insts::28                           28      1.57%     96.75% # Number of instructions mapped in this configuration
system.cpu0.bt.insts::29                            3      0.17%     96.92% # Number of instructions mapped in this configuration
system.cpu0.bt.insts::30                            1      0.06%     96.97% # Number of instructions mapped in this configuration
system.cpu0.bt.insts::31                           17      0.95%     97.93% # Number of instructions mapped in this configuration
system.cpu0.bt.insts::32                            2      0.11%     98.04% # Number of instructions mapped in this configuration
system.cpu0.bt.insts::overflows                    35      1.96%    100.00% # Number of instructions mapped in this configuration
system.cpu0.bt.insts::min_value                     4                       # Number of instructions mapped in this configuration
system.cpu0.bt.insts::max_value                    76                       # Number of instructions mapped in this configuration
system.cpu0.bt.insts::total                      1784                       # Number of instructions mapped in this configuration
system.cpu0.bt.ipc::samples                      1784                       # IPC for generated configurations
system.cpu0.bt.ipc::mean                     1.901994                       # IPC for generated configurations
system.cpu0.bt.ipc::stdev                    0.434905                       # IPC for generated configurations
system.cpu0.bt.ipc::underflows                      0      0.00%      0.00% # IPC for generated configurations
system.cpu0.bt.ipc::0                               0      0.00%      0.00% # IPC for generated configurations
system.cpu0.bt.ipc::1                             862     48.32%     48.32% # IPC for generated configurations
system.cpu0.bt.ipc::2                             888     49.78%     98.09% # IPC for generated configurations
system.cpu0.bt.ipc::3                              34      1.91%    100.00% # IPC for generated configurations
system.cpu0.bt.ipc::4                               0      0.00%    100.00% # IPC for generated configurations
system.cpu0.bt.ipc::5                               0      0.00%    100.00% # IPC for generated configurations
system.cpu0.bt.ipc::6                               0      0.00%    100.00% # IPC for generated configurations
system.cpu0.bt.ipc::7                               0      0.00%    100.00% # IPC for generated configurations
system.cpu0.bt.ipc::8                               0      0.00%    100.00% # IPC for generated configurations
system.cpu0.bt.ipc::9                               0      0.00%    100.00% # IPC for generated configurations
system.cpu0.bt.ipc::10                              0      0.00%    100.00% # IPC for generated configurations
system.cpu0.bt.ipc::11                              0      0.00%    100.00% # IPC for generated configurations
system.cpu0.bt.ipc::12                              0      0.00%    100.00% # IPC for generated configurations
system.cpu0.bt.ipc::13                              0      0.00%    100.00% # IPC for generated configurations
system.cpu0.bt.ipc::14                              0      0.00%    100.00% # IPC for generated configurations
system.cpu0.bt.ipc::15                              0      0.00%    100.00% # IPC for generated configurations
system.cpu0.bt.ipc::16                              0      0.00%    100.00% # IPC for generated configurations
system.cpu0.bt.ipc::overflows                       0      0.00%    100.00% # IPC for generated configurations
system.cpu0.bt.ipc::min_value                       1                       # IPC for generated configurations
system.cpu0.bt.ipc::max_value                       3                       # IPC for generated configurations
system.cpu0.bt.ipc::total                        1784                       # IPC for generated configurations
system.cpu0.commit.amos                           273                       # Number of atomic instructions committed
system.cpu0.commit.basicBlocks.number            1261                       # Number of different basic blocks executed
system.cpu0.commit.basicBlocks.size::samples        12241                       # Size of the basic blocks
system.cpu0.commit.basicBlocks.size::mean     5.122702                       # Size of the basic blocks
system.cpu0.commit.basicBlocks.size::stdev     4.576454                       # Size of the basic blocks
system.cpu0.commit.basicBlocks.size::underflows            0      0.00%      0.00% # Size of the basic blocks
system.cpu0.commit.basicBlocks.size::0-4         7510     61.35%     61.35% # Size of the basic blocks
system.cpu0.commit.basicBlocks.size::5-9         3068     25.06%     86.41% # Size of the basic blocks
system.cpu0.commit.basicBlocks.size::10-14          851      6.95%     93.37% # Size of the basic blocks
system.cpu0.commit.basicBlocks.size::15-19          536      4.38%     97.75% # Size of the basic blocks
system.cpu0.commit.basicBlocks.size::20-24          255      2.08%     99.83% # Size of the basic blocks
system.cpu0.commit.basicBlocks.size::25-29           18      0.15%     99.98% # Size of the basic blocks
system.cpu0.commit.basicBlocks.size::30-34            0      0.00%     99.98% # Size of the basic blocks
system.cpu0.commit.basicBlocks.size::35-39            1      0.01%     99.98% # Size of the basic blocks
system.cpu0.commit.basicBlocks.size::40-44            0      0.00%     99.98% # Size of the basic blocks
system.cpu0.commit.basicBlocks.size::45-49            1      0.01%     99.99% # Size of the basic blocks
system.cpu0.commit.basicBlocks.size::50             0      0.00%     99.99% # Size of the basic blocks
system.cpu0.commit.basicBlocks.size::overflows            1      0.01%    100.00% # Size of the basic blocks
system.cpu0.commit.basicBlocks.size::min_value            1                       # Size of the basic blocks
system.cpu0.commit.basicBlocks.size::max_value           63                       # Size of the basic blocks
system.cpu0.commit.basicBlocks.size::total        12241                       # Size of the basic blocks
system.cpu0.commit.basicBlocks.totalBasicBlocks        12241                       # Number of total basic blocks executed
system.cpu0.commit.basicBlocks.trace::samples        12241                       # Basic block distribution
system.cpu0.commit.basicBlocks.trace::66376            1                       # Basic block distribution
system.cpu0.commit.basicBlocks.trace::66388            1                       # Basic block distribution
system.cpu0.commit.basicBlocks.trace::66404            1                       # Basic block distribution
system.cpu0.commit.basicBlocks.trace::66420            1                       # Basic block distribution
system.cpu0.commit.basicBlocks.trace::66438            1                       # Basic block distribution
system.cpu0.commit.basicBlocks.trace::66442            1                       # Basic block distribution
system.cpu0.commit.basicBlocks.trace::66456            1                       # Basic block distribution
system.cpu0.commit.basicBlocks.trace::66458            1                       # Basic block distribution
system.cpu0.commit.basicBlocks.trace::66464            1                       # Basic block distribution
system.cpu0.commit.basicBlocks.trace::66486            1                       # Basic block distribution
system.cpu0.commit.basicBlocks.trace::66498            1                       # Basic block distribution
system.cpu0.commit.basicBlocks.trace::66506            1                       # Basic block distribution
system.cpu0.commit.basicBlocks.trace::66510            1                       # Basic block distribution
system.cpu0.commit.basicBlocks.trace::66524            1                       # Basic block distribution
system.cpu0.commit.basicBlocks.trace::66664            1                       # Basic block distribution
system.cpu0.commit.basicBlocks.trace::66668            1                       # Basic block distribution
system.cpu0.commit.basicBlocks.trace::66708            2                       # Basic block distribution
system.cpu0.commit.basicBlocks.trace::66718            1                       # Basic block distribution
system.cpu0.commit.basicBlocks.trace::66756            1                       # Basic block distribution
system.cpu0.commit.basicBlocks.trace::66758            1                       # Basic block distribution
system.cpu0.commit.basicBlocks.trace::66806            1                       # Basic block distribution
system.cpu0.commit.basicBlocks.trace::66808            1                       # Basic block distribution
system.cpu0.commit.basicBlocks.trace::66820            1                       # Basic block distribution
system.cpu0.commit.basicBlocks.trace::66824            1                       # Basic block distribution
system.cpu0.commit.basicBlocks.trace::66834            1                       # Basic block distribution
system.cpu0.commit.basicBlocks.trace::66846            1                       # Basic block distribution
system.cpu0.commit.basicBlocks.trace::66860            1                       # Basic block distribution
system.cpu0.commit.basicBlocks.trace::66870            1                       # Basic block distribution
system.cpu0.commit.basicBlocks.trace::66890            1                       # Basic block distribution
system.cpu0.commit.basicBlocks.trace::66902            1                       # Basic block distribution
system.cpu0.commit.basicBlocks.trace::66932            1                       # Basic block distribution
system.cpu0.commit.basicBlocks.trace::66964           16                       # Basic block distribution
system.cpu0.commit.basicBlocks.trace::66974           16                       # Basic block distribution
system.cpu0.commit.basicBlocks.trace::66980           16                       # Basic block distribution
system.cpu0.commit.basicBlocks.trace::66992           16                       # Basic block distribution
system.cpu0.commit.basicBlocks.trace::67008           16                       # Basic block distribution
system.cpu0.commit.basicBlocks.trace::67020           16                       # Basic block distribution
system.cpu0.commit.basicBlocks.trace::67038           16                       # Basic block distribution
system.cpu0.commit.basicBlocks.trace::67048           16                       # Basic block distribution
system.cpu0.commit.basicBlocks.trace::67062           16                       # Basic block distribution
system.cpu0.commit.basicBlocks.trace::67080            1                       # Basic block distribution
system.cpu0.commit.basicBlocks.trace::67220            1                       # Basic block distribution
system.cpu0.commit.basicBlocks.trace::67238            1                       # Basic block distribution
system.cpu0.commit.basicBlocks.trace::67252            1                       # Basic block distribution
system.cpu0.commit.basicBlocks.trace::67268            1                       # Basic block distribution
system.cpu0.commit.basicBlocks.trace::67292            1                       # Basic block distribution
system.cpu0.commit.basicBlocks.trace::67314            2                       # Basic block distribution
system.cpu0.commit.basicBlocks.trace::67330            3                       # Basic block distribution
system.cpu0.commit.basicBlocks.trace::67344            1                       # Basic block distribution
system.cpu0.commit.basicBlocks.trace::67422            1                       # Basic block distribution
system.cpu0.commit.basicBlocks.trace::67430            1                       # Basic block distribution
system.cpu0.commit.basicBlocks.trace::67454            2                       # Basic block distribution
system.cpu0.commit.basicBlocks.trace::67480            1                       # Basic block distribution
system.cpu0.commit.basicBlocks.trace::67520            1                       # Basic block distribution
system.cpu0.commit.basicBlocks.trace::67544            1                       # Basic block distribution
system.cpu0.commit.basicBlocks.trace::67562            2                       # Basic block distribution
system.cpu0.commit.basicBlocks.trace::67574            3                       # Basic block distribution
system.cpu0.commit.basicBlocks.trace::67588            3                       # Basic block distribution
system.cpu0.commit.basicBlocks.trace::67600            3                       # Basic block distribution
system.cpu0.commit.basicBlocks.trace::67612            3                       # Basic block distribution
system.cpu0.commit.basicBlocks.trace::67620            1                       # Basic block distribution
system.cpu0.commit.basicBlocks.trace::67668            1                       # Basic block distribution
system.cpu0.commit.basicBlocks.trace::67690            1                       # Basic block distribution
system.cpu0.commit.basicBlocks.trace::67708            1                       # Basic block distribution
system.cpu0.commit.basicBlocks.trace::67712            1                       # Basic block distribution
system.cpu0.commit.basicBlocks.trace::67716            1                       # Basic block distribution
system.cpu0.commit.basicBlocks.trace::67720            1                       # Basic block distribution
system.cpu0.commit.basicBlocks.trace::67728            1                       # Basic block distribution
system.cpu0.commit.basicBlocks.trace::67738            2                       # Basic block distribution
system.cpu0.commit.basicBlocks.trace::67748            3                       # Basic block distribution
system.cpu0.commit.basicBlocks.trace::67758            1                       # Basic block distribution
system.cpu0.commit.basicBlocks.trace::69040            3                       # Basic block distribution
system.cpu0.commit.basicBlocks.trace::69066            6                       # Basic block distribution
system.cpu0.commit.basicBlocks.trace::69140            3                       # Basic block distribution
system.cpu0.commit.basicBlocks.trace::69164            3                       # Basic block distribution
system.cpu0.commit.basicBlocks.trace::69168            3                       # Basic block distribution
system.cpu0.commit.basicBlocks.trace::69174            3                       # Basic block distribution
system.cpu0.commit.basicBlocks.trace::69184            3                       # Basic block distribution
system.cpu0.commit.basicBlocks.trace::69216            3                       # Basic block distribution
system.cpu0.commit.basicBlocks.trace::69222            3                       # Basic block distribution
system.cpu0.commit.basicBlocks.trace::69230            3                       # Basic block distribution
system.cpu0.commit.basicBlocks.trace::69262            3                       # Basic block distribution
system.cpu0.commit.basicBlocks.trace::69302            3                       # Basic block distribution
system.cpu0.commit.basicBlocks.trace::70066            3                       # Basic block distribution
system.cpu0.commit.basicBlocks.trace::70092            3                       # Basic block distribution
system.cpu0.commit.basicBlocks.trace::70098            3                       # Basic block distribution
system.cpu0.commit.basicBlocks.trace::70102            3                       # Basic block distribution
system.cpu0.commit.basicBlocks.trace::70112            3                       # Basic block distribution
system.cpu0.commit.basicBlocks.trace::70118            3                       # Basic block distribution
system.cpu0.commit.basicBlocks.trace::70132            3                       # Basic block distribution
system.cpu0.commit.basicBlocks.trace::70154            3                       # Basic block distribution
system.cpu0.commit.basicBlocks.trace::70176            3                       # Basic block distribution
system.cpu0.commit.basicBlocks.trace::72420            3                       # Basic block distribution
system.cpu0.commit.basicBlocks.trace::72438            3                       # Basic block distribution
system.cpu0.commit.basicBlocks.trace::72452            3                       # Basic block distribution
system.cpu0.commit.basicBlocks.trace::73168            3                       # Basic block distribution
system.cpu0.commit.basicBlocks.trace::73218            3                       # Basic block distribution
system.cpu0.commit.basicBlocks.trace::73222            3                       # Basic block distribution
system.cpu0.commit.basicBlocks.trace::73240            3                       # Basic block distribution
system.cpu0.commit.basicBlocks.trace::73248            3                       # Basic block distribution
system.cpu0.commit.basicBlocks.trace::73262            3                       # Basic block distribution
system.cpu0.commit.basicBlocks.trace::73268            3                       # Basic block distribution
system.cpu0.commit.basicBlocks.trace::73274            3                       # Basic block distribution
system.cpu0.commit.basicBlocks.trace::73304            3                       # Basic block distribution
system.cpu0.commit.basicBlocks.trace::73314            3                       # Basic block distribution
system.cpu0.commit.basicBlocks.trace::73360            3                       # Basic block distribution
system.cpu0.commit.basicBlocks.trace::73402            3                       # Basic block distribution
system.cpu0.commit.basicBlocks.trace::73416            3                       # Basic block distribution
system.cpu0.commit.basicBlocks.trace::73422            3                       # Basic block distribution
system.cpu0.commit.basicBlocks.trace::73428            3                       # Basic block distribution
system.cpu0.commit.basicBlocks.trace::73656            3                       # Basic block distribution
system.cpu0.commit.basicBlocks.trace::73664            3                       # Basic block distribution
system.cpu0.commit.basicBlocks.trace::73678            3                       # Basic block distribution
system.cpu0.commit.basicBlocks.trace::73766            3                       # Basic block distribution
system.cpu0.commit.basicBlocks.trace::73826            3                       # Basic block distribution
system.cpu0.commit.basicBlocks.trace::73836            3                       # Basic block distribution
system.cpu0.commit.basicBlocks.trace::73870            3                       # Basic block distribution
system.cpu0.commit.basicBlocks.trace::73886            3                       # Basic block distribution
system.cpu0.commit.basicBlocks.trace::73892            3                       # Basic block distribution
system.cpu0.commit.basicBlocks.trace::73900            3                       # Basic block distribution
system.cpu0.commit.basicBlocks.trace::73912            3                       # Basic block distribution
system.cpu0.commit.basicBlocks.trace::74402            3                       # Basic block distribution
system.cpu0.commit.basicBlocks.trace::74424            3                       # Basic block distribution
system.cpu0.commit.basicBlocks.trace::74432            3                       # Basic block distribution
system.cpu0.commit.basicBlocks.trace::74456            3                       # Basic block distribution
system.cpu0.commit.basicBlocks.trace::74472            3                       # Basic block distribution
system.cpu0.commit.basicBlocks.trace::74476            3                       # Basic block distribution
system.cpu0.commit.basicBlocks.trace::74504            3                       # Basic block distribution
system.cpu0.commit.basicBlocks.trace::74522            3                       # Basic block distribution
system.cpu0.commit.basicBlocks.trace::74530            3                       # Basic block distribution
system.cpu0.commit.basicBlocks.trace::74598            3                       # Basic block distribution
system.cpu0.commit.basicBlocks.trace::74610            3                       # Basic block distribution
system.cpu0.commit.basicBlocks.trace::74622            3                       # Basic block distribution
system.cpu0.commit.basicBlocks.trace::74628            3                       # Basic block distribution
system.cpu0.commit.basicBlocks.trace::74636            3                       # Basic block distribution
system.cpu0.commit.basicBlocks.trace::74654            3                       # Basic block distribution
system.cpu0.commit.basicBlocks.trace::74680            3                       # Basic block distribution
system.cpu0.commit.basicBlocks.trace::74830            1                       # Basic block distribution
system.cpu0.commit.basicBlocks.trace::74838            1                       # Basic block distribution
system.cpu0.commit.basicBlocks.trace::75886            3                       # Basic block distribution
system.cpu0.commit.basicBlocks.trace::75894            3                       # Basic block distribution
system.cpu0.commit.basicBlocks.trace::75902            3                       # Basic block distribution
system.cpu0.commit.basicBlocks.trace::75942            3                       # Basic block distribution
system.cpu0.commit.basicBlocks.trace::75946            3                       # Basic block distribution
system.cpu0.commit.basicBlocks.trace::75956            3                       # Basic block distribution
system.cpu0.commit.basicBlocks.trace::75964            3                       # Basic block distribution
system.cpu0.commit.basicBlocks.trace::75972            3                       # Basic block distribution
system.cpu0.commit.basicBlocks.trace::75978            3                       # Basic block distribution
system.cpu0.commit.basicBlocks.trace::75980            3                       # Basic block distribution
system.cpu0.commit.basicBlocks.trace::75990            2                       # Basic block distribution
system.cpu0.commit.basicBlocks.trace::76010            3                       # Basic block distribution
system.cpu0.commit.basicBlocks.trace::76016            3                       # Basic block distribution
system.cpu0.commit.basicBlocks.trace::76024            3                       # Basic block distribution
system.cpu0.commit.basicBlocks.trace::76038            3                       # Basic block distribution
system.cpu0.commit.basicBlocks.trace::76044            3                       # Basic block distribution
system.cpu0.commit.basicBlocks.trace::76146            1                       # Basic block distribution
system.cpu0.commit.basicBlocks.trace::76164            1                       # Basic block distribution
system.cpu0.commit.basicBlocks.trace::76168            1                       # Basic block distribution
system.cpu0.commit.basicBlocks.trace::76180            1                       # Basic block distribution
system.cpu0.commit.basicBlocks.trace::76188            1                       # Basic block distribution
system.cpu0.commit.basicBlocks.trace::76190            1                       # Basic block distribution
system.cpu0.commit.basicBlocks.trace::76216            1                       # Basic block distribution
system.cpu0.commit.basicBlocks.trace::76452            1                       # Basic block distribution
system.cpu0.commit.basicBlocks.trace::76460            1                       # Basic block distribution
system.cpu0.commit.basicBlocks.trace::77780            2                       # Basic block distribution
system.cpu0.commit.basicBlocks.trace::77792            2                       # Basic block distribution
system.cpu0.commit.basicBlocks.trace::77808            2                       # Basic block distribution
system.cpu0.commit.basicBlocks.trace::77818            2                       # Basic block distribution
system.cpu0.commit.basicBlocks.trace::77824            2                       # Basic block distribution
system.cpu0.commit.basicBlocks.trace::77828            2                       # Basic block distribution
system.cpu0.commit.basicBlocks.trace::77834            2                       # Basic block distribution
system.cpu0.commit.basicBlocks.trace::80144            2                       # Basic block distribution
system.cpu0.commit.basicBlocks.trace::80154            2                       # Basic block distribution
system.cpu0.commit.basicBlocks.trace::80164            2                       # Basic block distribution
system.cpu0.commit.basicBlocks.trace::80170            2                       # Basic block distribution
system.cpu0.commit.basicBlocks.trace::80188            2                       # Basic block distribution
system.cpu0.commit.basicBlocks.trace::80192            2                       # Basic block distribution
system.cpu0.commit.basicBlocks.trace::80378            2                       # Basic block distribution
system.cpu0.commit.basicBlocks.trace::81382            3                       # Basic block distribution
system.cpu0.commit.basicBlocks.trace::81398            3                       # Basic block distribution
system.cpu0.commit.basicBlocks.trace::81414            3                       # Basic block distribution
system.cpu0.commit.basicBlocks.trace::81416            3                       # Basic block distribution
system.cpu0.commit.basicBlocks.trace::81432            3                       # Basic block distribution
system.cpu0.commit.basicBlocks.trace::81448            3                       # Basic block distribution
system.cpu0.commit.basicBlocks.trace::81454            3                       # Basic block distribution
system.cpu0.commit.basicBlocks.trace::81460            3                       # Basic block distribution
system.cpu0.commit.basicBlocks.trace::81470            3                       # Basic block distribution
system.cpu0.commit.basicBlocks.trace::81504            3                       # Basic block distribution
system.cpu0.commit.basicBlocks.trace::81508            3                       # Basic block distribution
system.cpu0.commit.basicBlocks.trace::81532            3                       # Basic block distribution
system.cpu0.commit.basicBlocks.trace::81538            3                       # Basic block distribution
system.cpu0.commit.basicBlocks.trace::81544            3                       # Basic block distribution
system.cpu0.commit.basicBlocks.trace::81552            3                       # Basic block distribution
system.cpu0.commit.basicBlocks.trace::83076            1                       # Basic block distribution
system.cpu0.commit.basicBlocks.trace::83198           15                       # Basic block distribution
system.cpu0.commit.basicBlocks.trace::83208            1                       # Basic block distribution
system.cpu0.commit.basicBlocks.trace::83234            1                       # Basic block distribution
system.cpu0.commit.basicBlocks.trace::83264            1                       # Basic block distribution
system.cpu0.commit.basicBlocks.trace::83304            1                       # Basic block distribution
system.cpu0.commit.basicBlocks.trace::83324            1                       # Basic block distribution
system.cpu0.commit.basicBlocks.trace::83360            1                       # Basic block distribution
system.cpu0.commit.basicBlocks.trace::83362            1                       # Basic block distribution
system.cpu0.commit.basicBlocks.trace::83370            1                       # Basic block distribution
system.cpu0.commit.basicBlocks.trace::83384            1                       # Basic block distribution
system.cpu0.commit.basicBlocks.trace::83406            1                       # Basic block distribution
system.cpu0.commit.basicBlocks.trace::83436            1                       # Basic block distribution
system.cpu0.commit.basicBlocks.trace::83442            1                       # Basic block distribution
system.cpu0.commit.basicBlocks.trace::83446            1                       # Basic block distribution
system.cpu0.commit.basicBlocks.trace::83486            1                       # Basic block distribution
system.cpu0.commit.basicBlocks.trace::83536            1                       # Basic block distribution
system.cpu0.commit.basicBlocks.trace::83896            2                       # Basic block distribution
system.cpu0.commit.basicBlocks.trace::83910            2                       # Basic block distribution
system.cpu0.commit.basicBlocks.trace::83930            2                       # Basic block distribution
system.cpu0.commit.basicBlocks.trace::83954            2                       # Basic block distribution
system.cpu0.commit.basicBlocks.trace::83966            2                       # Basic block distribution
system.cpu0.commit.basicBlocks.trace::83976            2                       # Basic block distribution
system.cpu0.commit.basicBlocks.trace::99522            1                       # Basic block distribution
system.cpu0.commit.basicBlocks.trace::99558            1                       # Basic block distribution
system.cpu0.commit.basicBlocks.trace::99576            1                       # Basic block distribution
system.cpu0.commit.basicBlocks.trace::99606            1                       # Basic block distribution
system.cpu0.commit.basicBlocks.trace::99632            1                       # Basic block distribution
system.cpu0.commit.basicBlocks.trace::99666            1                       # Basic block distribution
system.cpu0.commit.basicBlocks.trace::99668            1                       # Basic block distribution
system.cpu0.commit.basicBlocks.trace::99672            1                       # Basic block distribution
system.cpu0.commit.basicBlocks.trace::99896            1                       # Basic block distribution
system.cpu0.commit.basicBlocks.trace::99908            1                       # Basic block distribution
system.cpu0.commit.basicBlocks.trace::99912            1                       # Basic block distribution
system.cpu0.commit.basicBlocks.trace::99926            1                       # Basic block distribution
system.cpu0.commit.basicBlocks.trace::99944            1                       # Basic block distribution
system.cpu0.commit.basicBlocks.trace::99958            1                       # Basic block distribution
system.cpu0.commit.basicBlocks.trace::99964            1                       # Basic block distribution
system.cpu0.commit.basicBlocks.trace::100024            1                       # Basic block distribution
system.cpu0.commit.basicBlocks.trace::100028            1                       # Basic block distribution
system.cpu0.commit.basicBlocks.trace::100046            1                       # Basic block distribution
system.cpu0.commit.basicBlocks.trace::100064            1                       # Basic block distribution
system.cpu0.commit.basicBlocks.trace::100122            1                       # Basic block distribution
system.cpu0.commit.basicBlocks.trace::100134            1                       # Basic block distribution
system.cpu0.commit.basicBlocks.trace::100552            1                       # Basic block distribution
system.cpu0.commit.basicBlocks.trace::100596            1                       # Basic block distribution
system.cpu0.commit.basicBlocks.trace::100632            1                       # Basic block distribution
system.cpu0.commit.basicBlocks.trace::100636            1                       # Basic block distribution
system.cpu0.commit.basicBlocks.trace::100648            1                       # Basic block distribution
system.cpu0.commit.basicBlocks.trace::100652            1                       # Basic block distribution
system.cpu0.commit.basicBlocks.trace::100660            1                       # Basic block distribution
system.cpu0.commit.basicBlocks.trace::100664            1                       # Basic block distribution
system.cpu0.commit.basicBlocks.trace::100756            1                       # Basic block distribution
system.cpu0.commit.basicBlocks.trace::100766            1                       # Basic block distribution
system.cpu0.commit.basicBlocks.trace::100770            1                       # Basic block distribution
system.cpu0.commit.basicBlocks.trace::100870            1                       # Basic block distribution
system.cpu0.commit.basicBlocks.trace::100882            1                       # Basic block distribution
system.cpu0.commit.basicBlocks.trace::100884            1                       # Basic block distribution
system.cpu0.commit.basicBlocks.trace::100894            1                       # Basic block distribution
system.cpu0.commit.basicBlocks.trace::100906            1                       # Basic block distribution
system.cpu0.commit.basicBlocks.trace::100908            1                       # Basic block distribution
system.cpu0.commit.basicBlocks.trace::100918            1                       # Basic block distribution
system.cpu0.commit.basicBlocks.trace::100926            1                       # Basic block distribution
system.cpu0.commit.basicBlocks.trace::100932            1                       # Basic block distribution
system.cpu0.commit.basicBlocks.trace::100934            1                       # Basic block distribution
system.cpu0.commit.basicBlocks.trace::100964            1                       # Basic block distribution
system.cpu0.commit.basicBlocks.trace::101046            1                       # Basic block distribution
system.cpu0.commit.basicBlocks.trace::101050            1                       # Basic block distribution
system.cpu0.commit.basicBlocks.trace::101054            1                       # Basic block distribution
system.cpu0.commit.basicBlocks.trace::101068            1                       # Basic block distribution
system.cpu0.commit.basicBlocks.trace::101350            1                       # Basic block distribution
system.cpu0.commit.basicBlocks.trace::101390            1                       # Basic block distribution
system.cpu0.commit.basicBlocks.trace::101412            1                       # Basic block distribution
system.cpu0.commit.basicBlocks.trace::101420            1                       # Basic block distribution
system.cpu0.commit.basicBlocks.trace::101424            3                       # Basic block distribution
system.cpu0.commit.basicBlocks.trace::101430            3                       # Basic block distribution
system.cpu0.commit.basicBlocks.trace::101460            1                       # Basic block distribution
system.cpu0.commit.basicBlocks.trace::101482            1                       # Basic block distribution
system.cpu0.commit.basicBlocks.trace::101544            1                       # Basic block distribution
system.cpu0.commit.basicBlocks.trace::101692            1                       # Basic block distribution
system.cpu0.commit.basicBlocks.trace::101712            1                       # Basic block distribution
system.cpu0.commit.basicBlocks.trace::101716            1                       # Basic block distribution
system.cpu0.commit.basicBlocks.trace::101814            1                       # Basic block distribution
system.cpu0.commit.basicBlocks.trace::101864            1                       # Basic block distribution
system.cpu0.commit.basicBlocks.trace::101882            1                       # Basic block distribution
system.cpu0.commit.basicBlocks.trace::101888            1                       # Basic block distribution
system.cpu0.commit.basicBlocks.trace::101916            1                       # Basic block distribution
system.cpu0.commit.basicBlocks.trace::101934            1                       # Basic block distribution
system.cpu0.commit.basicBlocks.trace::101940            1                       # Basic block distribution
system.cpu0.commit.basicBlocks.trace::101958            1                       # Basic block distribution
system.cpu0.commit.basicBlocks.trace::101992            1                       # Basic block distribution
system.cpu0.commit.basicBlocks.trace::102002            1                       # Basic block distribution
system.cpu0.commit.basicBlocks.trace::102010            2                       # Basic block distribution
system.cpu0.commit.basicBlocks.trace::102014            1                       # Basic block distribution
system.cpu0.commit.basicBlocks.trace::102332            1                       # Basic block distribution
system.cpu0.commit.basicBlocks.trace::102350            1                       # Basic block distribution
system.cpu0.commit.basicBlocks.trace::115896            1                       # Basic block distribution
system.cpu0.commit.basicBlocks.trace::115904            1                       # Basic block distribution
system.cpu0.commit.basicBlocks.trace::116004            1                       # Basic block distribution
system.cpu0.commit.basicBlocks.trace::116014            1                       # Basic block distribution
system.cpu0.commit.basicBlocks.trace::117630            7                       # Basic block distribution
system.cpu0.commit.basicBlocks.trace::117654            7                       # Basic block distribution
system.cpu0.commit.basicBlocks.trace::117662            7                       # Basic block distribution
system.cpu0.commit.basicBlocks.trace::117764            7                       # Basic block distribution
system.cpu0.commit.basicBlocks.trace::117786            7                       # Basic block distribution
system.cpu0.commit.basicBlocks.trace::117790            7                       # Basic block distribution
system.cpu0.commit.basicBlocks.trace::117894            1                       # Basic block distribution
system.cpu0.commit.basicBlocks.trace::117930            1                       # Basic block distribution
system.cpu0.commit.basicBlocks.trace::117944            2                       # Basic block distribution
system.cpu0.commit.basicBlocks.trace::117956            1                       # Basic block distribution
system.cpu0.commit.basicBlocks.trace::117970            1                       # Basic block distribution
system.cpu0.commit.basicBlocks.trace::117982            1                       # Basic block distribution
system.cpu0.commit.basicBlocks.trace::117992            1                       # Basic block distribution
system.cpu0.commit.basicBlocks.trace::117996            1                       # Basic block distribution
system.cpu0.commit.basicBlocks.trace::118016            1                       # Basic block distribution
system.cpu0.commit.basicBlocks.trace::118036            1                       # Basic block distribution
system.cpu0.commit.basicBlocks.trace::118040            1                       # Basic block distribution
system.cpu0.commit.basicBlocks.trace::118070            1                       # Basic block distribution
system.cpu0.commit.basicBlocks.trace::118082            1                       # Basic block distribution
system.cpu0.commit.basicBlocks.trace::118102            1                       # Basic block distribution
system.cpu0.commit.basicBlocks.trace::118118            1                       # Basic block distribution
system.cpu0.commit.basicBlocks.trace::118144            1                       # Basic block distribution
system.cpu0.commit.basicBlocks.trace::118150            1                       # Basic block distribution
system.cpu0.commit.basicBlocks.trace::118154            1                       # Basic block distribution
system.cpu0.commit.basicBlocks.trace::118160            1                       # Basic block distribution
system.cpu0.commit.basicBlocks.trace::118204            1                       # Basic block distribution
system.cpu0.commit.basicBlocks.trace::118240            1                       # Basic block distribution
system.cpu0.commit.basicBlocks.trace::118282            1                       # Basic block distribution
system.cpu0.commit.basicBlocks.trace::118320            1                       # Basic block distribution
system.cpu0.commit.basicBlocks.trace::118452            1                       # Basic block distribution
system.cpu0.commit.basicBlocks.trace::118476            1                       # Basic block distribution
system.cpu0.commit.basicBlocks.trace::118478            1                       # Basic block distribution
system.cpu0.commit.basicBlocks.trace::118520            1                       # Basic block distribution
system.cpu0.commit.basicBlocks.trace::118548            1                       # Basic block distribution
system.cpu0.commit.basicBlocks.trace::118580            1                       # Basic block distribution
system.cpu0.commit.basicBlocks.trace::118586            1                       # Basic block distribution
system.cpu0.commit.basicBlocks.trace::118594            1                       # Basic block distribution
system.cpu0.commit.basicBlocks.trace::118642            1                       # Basic block distribution
system.cpu0.commit.basicBlocks.trace::118646            1                       # Basic block distribution
system.cpu0.commit.basicBlocks.trace::118654            1                       # Basic block distribution
system.cpu0.commit.basicBlocks.trace::118682            1                       # Basic block distribution
system.cpu0.commit.basicBlocks.trace::118684            1                       # Basic block distribution
system.cpu0.commit.basicBlocks.trace::118688            1                       # Basic block distribution
system.cpu0.commit.basicBlocks.trace::118704            1                       # Basic block distribution
system.cpu0.commit.basicBlocks.trace::118782            1                       # Basic block distribution
system.cpu0.commit.basicBlocks.trace::118786            1                       # Basic block distribution
system.cpu0.commit.basicBlocks.trace::118790            1                       # Basic block distribution
system.cpu0.commit.basicBlocks.trace::118794            1                       # Basic block distribution
system.cpu0.commit.basicBlocks.trace::118814            1                       # Basic block distribution
system.cpu0.commit.basicBlocks.trace::118822            1                       # Basic block distribution
system.cpu0.commit.basicBlocks.trace::118854            1                       # Basic block distribution
system.cpu0.commit.basicBlocks.trace::118914            1                       # Basic block distribution
system.cpu0.commit.basicBlocks.trace::118998            1                       # Basic block distribution
system.cpu0.commit.basicBlocks.trace::119050            1                       # Basic block distribution
system.cpu0.commit.basicBlocks.trace::119116            1                       # Basic block distribution
system.cpu0.commit.basicBlocks.trace::120776           12                       # Basic block distribution
system.cpu0.commit.basicBlocks.trace::120812           12                       # Basic block distribution
system.cpu0.commit.basicBlocks.trace::122268           16                       # Basic block distribution
system.cpu0.commit.basicBlocks.trace::122294           16                       # Basic block distribution
system.cpu0.commit.basicBlocks.trace::122296           16                       # Basic block distribution
system.cpu0.commit.basicBlocks.trace::122324           16                       # Basic block distribution
system.cpu0.commit.basicBlocks.trace::122340           16                       # Basic block distribution
system.cpu0.commit.basicBlocks.trace::122354           16                       # Basic block distribution
system.cpu0.commit.basicBlocks.trace::122356           16                       # Basic block distribution
system.cpu0.commit.basicBlocks.trace::122392           16                       # Basic block distribution
system.cpu0.commit.basicBlocks.trace::122476           16                       # Basic block distribution
system.cpu0.commit.basicBlocks.trace::122482           16                       # Basic block distribution
system.cpu0.commit.basicBlocks.trace::122504           16                       # Basic block distribution
system.cpu0.commit.basicBlocks.trace::122522           16                       # Basic block distribution
system.cpu0.commit.basicBlocks.trace::122534           16                       # Basic block distribution
system.cpu0.commit.basicBlocks.trace::122544           16                       # Basic block distribution
system.cpu0.commit.basicBlocks.trace::122550           16                       # Basic block distribution
system.cpu0.commit.basicBlocks.trace::122554           16                       # Basic block distribution
system.cpu0.commit.basicBlocks.trace::122576           16                       # Basic block distribution
system.cpu0.commit.basicBlocks.trace::122588           16                       # Basic block distribution
system.cpu0.commit.basicBlocks.trace::122600           16                       # Basic block distribution
system.cpu0.commit.basicBlocks.trace::122608           16                       # Basic block distribution
system.cpu0.commit.basicBlocks.trace::122628           16                       # Basic block distribution
system.cpu0.commit.basicBlocks.trace::122632           16                       # Basic block distribution
system.cpu0.commit.basicBlocks.trace::122752           16                       # Basic block distribution
system.cpu0.commit.basicBlocks.trace::122772           16                       # Basic block distribution
system.cpu0.commit.basicBlocks.trace::122784           16                       # Basic block distribution
system.cpu0.commit.basicBlocks.trace::122794           16                       # Basic block distribution
system.cpu0.commit.basicBlocks.trace::122800           16                       # Basic block distribution
system.cpu0.commit.basicBlocks.trace::122804           16                       # Basic block distribution
system.cpu0.commit.basicBlocks.trace::122826           16                       # Basic block distribution
system.cpu0.commit.basicBlocks.trace::122868           16                       # Basic block distribution
system.cpu0.commit.basicBlocks.trace::122890           16                       # Basic block distribution
system.cpu0.commit.basicBlocks.trace::122896           16                       # Basic block distribution
system.cpu0.commit.basicBlocks.trace::122918           16                       # Basic block distribution
system.cpu0.commit.basicBlocks.trace::122920           16                       # Basic block distribution
system.cpu0.commit.basicBlocks.trace::122932           16                       # Basic block distribution
system.cpu0.commit.basicBlocks.trace::123098            2                       # Basic block distribution
system.cpu0.commit.basicBlocks.trace::123118            2                       # Basic block distribution
system.cpu0.commit.basicBlocks.trace::123134            2                       # Basic block distribution
system.cpu0.commit.basicBlocks.trace::123146            2                       # Basic block distribution
system.cpu0.commit.basicBlocks.trace::123156            2                       # Basic block distribution
system.cpu0.commit.basicBlocks.trace::123162            2                       # Basic block distribution
system.cpu0.commit.basicBlocks.trace::123166            2                       # Basic block distribution
system.cpu0.commit.basicBlocks.trace::123188            1                       # Basic block distribution
system.cpu0.commit.basicBlocks.trace::123194            2                       # Basic block distribution
system.cpu0.commit.basicBlocks.trace::123224            2                       # Basic block distribution
system.cpu0.commit.basicBlocks.trace::123234            2                       # Basic block distribution
system.cpu0.commit.basicBlocks.trace::123238            2                       # Basic block distribution
system.cpu0.commit.basicBlocks.trace::123262            2                       # Basic block distribution
system.cpu0.commit.basicBlocks.trace::123278            2                       # Basic block distribution
system.cpu0.commit.basicBlocks.trace::123290            2                       # Basic block distribution
system.cpu0.commit.basicBlocks.trace::123302            2                       # Basic block distribution
system.cpu0.commit.basicBlocks.trace::123328            1                       # Basic block distribution
system.cpu0.commit.basicBlocks.trace::123340            2                       # Basic block distribution
system.cpu0.commit.basicBlocks.trace::123390            2                       # Basic block distribution
system.cpu0.commit.basicBlocks.trace::123396            2                       # Basic block distribution
system.cpu0.commit.basicBlocks.trace::123484           48                       # Basic block distribution
system.cpu0.commit.basicBlocks.trace::123490           48                       # Basic block distribution
system.cpu0.commit.basicBlocks.trace::123502           32                       # Basic block distribution
system.cpu0.commit.basicBlocks.trace::123510           32                       # Basic block distribution
system.cpu0.commit.basicBlocks.trace::123542           48                       # Basic block distribution
system.cpu0.commit.basicBlocks.trace::123570           48                       # Basic block distribution
system.cpu0.commit.basicBlocks.trace::131588           32                       # Basic block distribution
system.cpu0.commit.basicBlocks.trace::131616           32                       # Basic block distribution
system.cpu0.commit.basicBlocks.trace::131628           32                       # Basic block distribution
system.cpu0.commit.basicBlocks.trace::131638           32                       # Basic block distribution
system.cpu0.commit.basicBlocks.trace::131644           32                       # Basic block distribution
system.cpu0.commit.basicBlocks.trace::131648           32                       # Basic block distribution
system.cpu0.commit.basicBlocks.trace::131672           32                       # Basic block distribution
system.cpu0.commit.basicBlocks.trace::131694           32                       # Basic block distribution
system.cpu0.commit.basicBlocks.trace::131706           32                       # Basic block distribution
system.cpu0.commit.basicBlocks.trace::131722           32                       # Basic block distribution
system.cpu0.commit.basicBlocks.trace::132880           17                       # Basic block distribution
system.cpu0.commit.basicBlocks.trace::132892           17                       # Basic block distribution
system.cpu0.commit.basicBlocks.trace::132894           17                       # Basic block distribution
system.cpu0.commit.basicBlocks.trace::133006            5                       # Basic block distribution
system.cpu0.commit.basicBlocks.trace::133070            5                       # Basic block distribution
system.cpu0.commit.basicBlocks.trace::133074            5                       # Basic block distribution
system.cpu0.commit.basicBlocks.trace::133086            5                       # Basic block distribution
system.cpu0.commit.basicBlocks.trace::133098            5                       # Basic block distribution
system.cpu0.commit.basicBlocks.trace::133120            5                       # Basic block distribution
system.cpu0.commit.basicBlocks.trace::133142            5                       # Basic block distribution
system.cpu0.commit.basicBlocks.trace::133154            5                       # Basic block distribution
system.cpu0.commit.basicBlocks.trace::133254           48                       # Basic block distribution
system.cpu0.commit.basicBlocks.trace::133280           32                       # Basic block distribution
system.cpu0.commit.basicBlocks.trace::133296           16                       # Basic block distribution
system.cpu0.commit.basicBlocks.trace::133318           16                       # Basic block distribution
system.cpu0.commit.basicBlocks.trace::133324           32                       # Basic block distribution
system.cpu0.commit.basicBlocks.trace::133330           16                       # Basic block distribution
system.cpu0.commit.basicBlocks.trace::133362           16                       # Basic block distribution
system.cpu0.commit.basicBlocks.trace::133372           16                       # Basic block distribution
system.cpu0.commit.basicBlocks.trace::133376           16                       # Basic block distribution
system.cpu0.commit.basicBlocks.trace::133388           16                       # Basic block distribution
system.cpu0.commit.basicBlocks.trace::133394           16                       # Basic block distribution
system.cpu0.commit.basicBlocks.trace::133404           32                       # Basic block distribution
system.cpu0.commit.basicBlocks.trace::133430           32                       # Basic block distribution
system.cpu0.commit.basicBlocks.trace::133450           32                       # Basic block distribution
system.cpu0.commit.basicBlocks.trace::133462           32                       # Basic block distribution
system.cpu0.commit.basicBlocks.trace::133472           32                       # Basic block distribution
system.cpu0.commit.basicBlocks.trace::133478           32                       # Basic block distribution
system.cpu0.commit.basicBlocks.trace::133482           16                       # Basic block distribution
system.cpu0.commit.basicBlocks.trace::133494           16                       # Basic block distribution
system.cpu0.commit.basicBlocks.trace::133510           16                       # Basic block distribution
system.cpu0.commit.basicBlocks.trace::133514           16                       # Basic block distribution
system.cpu0.commit.basicBlocks.trace::133520           32                       # Basic block distribution
system.cpu0.commit.basicBlocks.trace::133554           16                       # Basic block distribution
system.cpu0.commit.basicBlocks.trace::133558           16                       # Basic block distribution
system.cpu0.commit.basicBlocks.trace::133560           16                       # Basic block distribution
system.cpu0.commit.basicBlocks.trace::133570           32                       # Basic block distribution
system.cpu0.commit.basicBlocks.trace::133574           16                       # Basic block distribution
system.cpu0.commit.basicBlocks.trace::133590           16                       # Basic block distribution
system.cpu0.commit.basicBlocks.trace::133596           16                       # Basic block distribution
system.cpu0.commit.basicBlocks.trace::133642           16                       # Basic block distribution
system.cpu0.commit.basicBlocks.trace::133646           16                       # Basic block distribution
system.cpu0.commit.basicBlocks.trace::133652           16                       # Basic block distribution
system.cpu0.commit.basicBlocks.trace::133806           48                       # Basic block distribution
system.cpu0.commit.basicBlocks.trace::133828           16                       # Basic block distribution
system.cpu0.commit.basicBlocks.trace::133832           16                       # Basic block distribution
system.cpu0.commit.basicBlocks.trace::133912           16                       # Basic block distribution
system.cpu0.commit.basicBlocks.trace::133918           16                       # Basic block distribution
system.cpu0.commit.basicBlocks.trace::133926           16                       # Basic block distribution
system.cpu0.commit.basicBlocks.trace::133942           16                       # Basic block distribution
system.cpu0.commit.basicBlocks.trace::134082           16                       # Basic block distribution
system.cpu0.commit.basicBlocks.trace::134092           16                       # Basic block distribution
system.cpu0.commit.basicBlocks.trace::134100           16                       # Basic block distribution
system.cpu0.commit.basicBlocks.trace::134126           16                       # Basic block distribution
system.cpu0.commit.basicBlocks.trace::134284           16                       # Basic block distribution
system.cpu0.commit.basicBlocks.trace::134294           16                       # Basic block distribution
system.cpu0.commit.basicBlocks.trace::134320           16                       # Basic block distribution
system.cpu0.commit.basicBlocks.trace::134334           16                       # Basic block distribution
system.cpu0.commit.basicBlocks.trace::134338           16                       # Basic block distribution
system.cpu0.commit.basicBlocks.trace::134352           16                       # Basic block distribution
system.cpu0.commit.basicBlocks.trace::134394           16                       # Basic block distribution
system.cpu0.commit.basicBlocks.trace::135090           32                       # Basic block distribution
system.cpu0.commit.basicBlocks.trace::135596           33                       # Basic block distribution
system.cpu0.commit.basicBlocks.trace::135606            5                       # Basic block distribution
system.cpu0.commit.basicBlocks.trace::135626            5                       # Basic block distribution
system.cpu0.commit.basicBlocks.trace::135650            5                       # Basic block distribution
system.cpu0.commit.basicBlocks.trace::135654            5                       # Basic block distribution
system.cpu0.commit.basicBlocks.trace::135658            5                       # Basic block distribution
system.cpu0.commit.basicBlocks.trace::135666            5                       # Basic block distribution
system.cpu0.commit.basicBlocks.trace::135708            5                       # Basic block distribution
system.cpu0.commit.basicBlocks.trace::135722            5                       # Basic block distribution
system.cpu0.commit.basicBlocks.trace::135982           16                       # Basic block distribution
system.cpu0.commit.basicBlocks.trace::136016           16                       # Basic block distribution
system.cpu0.commit.basicBlocks.trace::136020           16                       # Basic block distribution
system.cpu0.commit.basicBlocks.trace::136030           16                       # Basic block distribution
system.cpu0.commit.basicBlocks.trace::136058           16                       # Basic block distribution
system.cpu0.commit.basicBlocks.trace::136060           32                       # Basic block distribution
system.cpu0.commit.basicBlocks.trace::136068           32                       # Basic block distribution
system.cpu0.commit.basicBlocks.trace::136072           32                       # Basic block distribution
system.cpu0.commit.basicBlocks.trace::136080           16                       # Basic block distribution
system.cpu0.commit.basicBlocks.trace::136096           16                       # Basic block distribution
system.cpu0.commit.basicBlocks.trace::136114           16                       # Basic block distribution
system.cpu0.commit.basicBlocks.trace::136122           16                       # Basic block distribution
system.cpu0.commit.basicBlocks.trace::136126           16                       # Basic block distribution
system.cpu0.commit.basicBlocks.trace::136138           16                       # Basic block distribution
system.cpu0.commit.basicBlocks.trace::136142           16                       # Basic block distribution
system.cpu0.commit.basicBlocks.trace::136146           32                       # Basic block distribution
system.cpu0.commit.basicBlocks.trace::136156           16                       # Basic block distribution
system.cpu0.commit.basicBlocks.trace::136164           16                       # Basic block distribution
system.cpu0.commit.basicBlocks.trace::136282           16                       # Basic block distribution
system.cpu0.commit.basicBlocks.trace::136288           16                       # Basic block distribution
system.cpu0.commit.basicBlocks.trace::136296           16                       # Basic block distribution
system.cpu0.commit.basicBlocks.trace::136662           48                       # Basic block distribution
system.cpu0.commit.basicBlocks.trace::136670           48                       # Basic block distribution
system.cpu0.commit.basicBlocks.trace::136702           38                       # Basic block distribution
system.cpu0.commit.basicBlocks.trace::136722           26                       # Basic block distribution
system.cpu0.commit.basicBlocks.trace::136744            1                       # Basic block distribution
system.cpu0.commit.basicBlocks.trace::136754            1                       # Basic block distribution
system.cpu0.commit.basicBlocks.trace::136756            3                       # Basic block distribution
system.cpu0.commit.basicBlocks.trace::136786            4                       # Basic block distribution
system.cpu0.commit.basicBlocks.trace::136796            4                       # Basic block distribution
system.cpu0.commit.basicBlocks.trace::136802            4                       # Basic block distribution
system.cpu0.commit.basicBlocks.trace::136818            4                       # Basic block distribution
system.cpu0.commit.basicBlocks.trace::136830            4                       # Basic block distribution
system.cpu0.commit.basicBlocks.trace::136836           38                       # Basic block distribution
system.cpu0.commit.basicBlocks.trace::136856           25                       # Basic block distribution
system.cpu0.commit.basicBlocks.trace::136866           25                       # Basic block distribution
system.cpu0.commit.basicBlocks.trace::136874           25                       # Basic block distribution
system.cpu0.commit.basicBlocks.trace::136886           25                       # Basic block distribution
system.cpu0.commit.basicBlocks.trace::136888           81                       # Basic block distribution
system.cpu0.commit.basicBlocks.trace::136892           84                       # Basic block distribution
system.cpu0.commit.basicBlocks.trace::136902            3                       # Basic block distribution
system.cpu0.commit.basicBlocks.trace::136922           25                       # Basic block distribution
system.cpu0.commit.basicBlocks.trace::136928           25                       # Basic block distribution
system.cpu0.commit.basicBlocks.trace::136936           25                       # Basic block distribution
system.cpu0.commit.basicBlocks.trace::136950           22                       # Basic block distribution
system.cpu0.commit.basicBlocks.trace::136956            3                       # Basic block distribution
system.cpu0.commit.basicBlocks.trace::136980            4                       # Basic block distribution
system.cpu0.commit.basicBlocks.trace::136992            4                       # Basic block distribution
system.cpu0.commit.basicBlocks.trace::137014           22                       # Basic block distribution
system.cpu0.commit.basicBlocks.trace::137034            3                       # Basic block distribution
system.cpu0.commit.basicBlocks.trace::137038           16                       # Basic block distribution
system.cpu0.commit.basicBlocks.trace::137068           16                       # Basic block distribution
system.cpu0.commit.basicBlocks.trace::137122           16                       # Basic block distribution
system.cpu0.commit.basicBlocks.trace::137142           16                       # Basic block distribution
system.cpu0.commit.basicBlocks.trace::137154           16                       # Basic block distribution
system.cpu0.commit.basicBlocks.trace::137160           16                       # Basic block distribution
system.cpu0.commit.basicBlocks.trace::137236           16                       # Basic block distribution
system.cpu0.commit.basicBlocks.trace::137242           16                       # Basic block distribution
system.cpu0.commit.basicBlocks.trace::137480            6                       # Basic block distribution
system.cpu0.commit.basicBlocks.trace::137482            1                       # Basic block distribution
system.cpu0.commit.basicBlocks.trace::137486            5                       # Basic block distribution
system.cpu0.commit.basicBlocks.trace::137498            5                       # Basic block distribution
system.cpu0.commit.basicBlocks.trace::137808           16                       # Basic block distribution
system.cpu0.commit.basicBlocks.trace::137832           16                       # Basic block distribution
system.cpu0.commit.basicBlocks.trace::137868           16                       # Basic block distribution
system.cpu0.commit.basicBlocks.trace::137894           16                       # Basic block distribution
system.cpu0.commit.basicBlocks.trace::137930           16                       # Basic block distribution
system.cpu0.commit.basicBlocks.trace::137940           32                       # Basic block distribution
system.cpu0.commit.basicBlocks.trace::137944           32                       # Basic block distribution
system.cpu0.commit.basicBlocks.trace::137948           32                       # Basic block distribution
system.cpu0.commit.basicBlocks.trace::137952           16                       # Basic block distribution
system.cpu0.commit.basicBlocks.trace::137958           16                       # Basic block distribution
system.cpu0.commit.basicBlocks.trace::137974           16                       # Basic block distribution
system.cpu0.commit.basicBlocks.trace::137980           16                       # Basic block distribution
system.cpu0.commit.basicBlocks.trace::137996           16                       # Basic block distribution
system.cpu0.commit.basicBlocks.trace::138484           16                       # Basic block distribution
system.cpu0.commit.basicBlocks.trace::138564           16                       # Basic block distribution
system.cpu0.commit.basicBlocks.trace::138820           32                       # Basic block distribution
system.cpu0.commit.basicBlocks.trace::138830           32                       # Basic block distribution
system.cpu0.commit.basicBlocks.trace::138854           31                       # Basic block distribution
system.cpu0.commit.basicBlocks.trace::138856           31                       # Basic block distribution
system.cpu0.commit.basicBlocks.trace::138864           28                       # Basic block distribution
system.cpu0.commit.basicBlocks.trace::138870           28                       # Basic block distribution
system.cpu0.commit.basicBlocks.trace::138888           28                       # Basic block distribution
system.cpu0.commit.basicBlocks.trace::138894           28                       # Basic block distribution
system.cpu0.commit.basicBlocks.trace::138900           28                       # Basic block distribution
system.cpu0.commit.basicBlocks.trace::138916            1                       # Basic block distribution
system.cpu0.commit.basicBlocks.trace::138920            1                       # Basic block distribution
system.cpu0.commit.basicBlocks.trace::138926            1                       # Basic block distribution
system.cpu0.commit.basicBlocks.trace::138932            1                       # Basic block distribution
system.cpu0.commit.basicBlocks.trace::138962            1                       # Basic block distribution
system.cpu0.commit.basicBlocks.trace::138968            1                       # Basic block distribution
system.cpu0.commit.basicBlocks.trace::138976            4                       # Basic block distribution
system.cpu0.commit.basicBlocks.trace::138996            2                       # Basic block distribution
system.cpu0.commit.basicBlocks.trace::139010            2                       # Basic block distribution
system.cpu0.commit.basicBlocks.trace::139084            1                       # Basic block distribution
system.cpu0.commit.basicBlocks.trace::139090            1                       # Basic block distribution
system.cpu0.commit.basicBlocks.trace::139162           17                       # Basic block distribution
system.cpu0.commit.basicBlocks.trace::139210           17                       # Basic block distribution
system.cpu0.commit.basicBlocks.trace::139264           17                       # Basic block distribution
system.cpu0.commit.basicBlocks.trace::140230           32                       # Basic block distribution
system.cpu0.commit.basicBlocks.trace::140240           16                       # Basic block distribution
system.cpu0.commit.basicBlocks.trace::140296           16                       # Basic block distribution
system.cpu0.commit.basicBlocks.trace::140314           16                       # Basic block distribution
system.cpu0.commit.basicBlocks.trace::140324           16                       # Basic block distribution
system.cpu0.commit.basicBlocks.trace::140330           16                       # Basic block distribution
system.cpu0.commit.basicBlocks.trace::140336           16                       # Basic block distribution
system.cpu0.commit.basicBlocks.trace::140362           16                       # Basic block distribution
system.cpu0.commit.basicBlocks.trace::140374           16                       # Basic block distribution
system.cpu0.commit.basicBlocks.trace::140384           16                       # Basic block distribution
system.cpu0.commit.basicBlocks.trace::140390           16                       # Basic block distribution
system.cpu0.commit.basicBlocks.trace::140396           16                       # Basic block distribution
system.cpu0.commit.basicBlocks.trace::140442           16                       # Basic block distribution
system.cpu0.commit.basicBlocks.trace::140452           16                       # Basic block distribution
system.cpu0.commit.basicBlocks.trace::140466           16                       # Basic block distribution
system.cpu0.commit.basicBlocks.trace::140482           16                       # Basic block distribution
system.cpu0.commit.basicBlocks.trace::140500           16                       # Basic block distribution
system.cpu0.commit.basicBlocks.trace::140514           16                       # Basic block distribution
system.cpu0.commit.basicBlocks.trace::140550           16                       # Basic block distribution
system.cpu0.commit.basicBlocks.trace::140594           16                       # Basic block distribution
system.cpu0.commit.basicBlocks.trace::140728           16                       # Basic block distribution
system.cpu0.commit.basicBlocks.trace::140790           16                       # Basic block distribution
system.cpu0.commit.basicBlocks.trace::140798           16                       # Basic block distribution
system.cpu0.commit.basicBlocks.trace::140810           16                       # Basic block distribution
system.cpu0.commit.basicBlocks.trace::140910            2                       # Basic block distribution
[...]
system.mem_ctrl.totGap                   168944227000                       # Total gap between requests
system.mem_ctrl.totMemAccLat               5264567250                       # Total ticks spent from burst creation until serviced by the DRAM
system.mem_ctrl.totQLat                    3190742250                       # Total ticks spent queuing
system.mem_ctrl.wrPerTurnAround::samples           12                       # Writes before turning the bus around for reads
system.mem_ctrl.wrPerTurnAround::mean       17.916667                       # Writes before turning the bus around for reads
system.mem_ctrl.wrPerTurnAround::gmean      17.904680                       # Writes before turning the bus around for reads
system.mem_ctrl.wrPerTurnAround::stdev       0.668558                       # Writes before turning the bus around for reads
system.mem_ctrl.wrPerTurnAround::16                 1      8.33%      8.33% # Writes before turning the bus around for reads
system.mem_ctrl.wrPerTurnAround::18                10     83.33%     91.67% # Writes before turning the bus around for reads
system.mem_ctrl.wrPerTurnAround::19                 1      8.33%    100.00% # Writes before turning the bus around for reads
system.mem_ctrl.wrPerTurnAround::total             12                       # Writes before turning the bus around for reads
system.mem_ctrl.wrQLenPdf::0                        1                       # What write queue length does an incoming req see
system.mem_ctrl.wrQLenPdf::1                        1                       # What write queue length does an incoming req see
system.mem_ctrl.wrQLenPdf::2                        1                       # What write queue length does an incoming req see
system.mem_ctrl.wrQLenPdf::3                        1                       # What write queue length does an incoming req see
system.mem_ctrl.wrQLenPdf::4                        1                       # What write queue length does an incoming req see
system.mem_ctrl.wrQLenPdf::5                        1                       # What write queue length does an incoming req see
system.mem_ctrl.wrQLenPdf::6                        1                       # What write queue length does an incoming req see
system.mem_ctrl.wrQLenPdf::7                        1                       # What write queue length does an incoming req see
system.mem_ctrl.wrQLenPdf::8                        1                       # What write queue length does an incoming req see
system.mem_ctrl.wrQLenPdf::9                        1                       # What write queue length does an incoming req see
system.mem_ctrl.wrQLenPdf::10                       1                       # What write queue length does an incoming req see
system.mem_ctrl.wrQLenPdf::11                       1                       # What write queue length does an incoming req see
system.mem_ctrl.wrQLenPdf::12                       1                       # What write queue length does an incoming req see
system.mem_ctrl.wrQLenPdf::13                       1                       # What write queue length does an incoming req see
system.mem_ctrl.wrQLenPdf::14                       1                       # What write queue length does an incoming req see
system.mem_ctrl.wrQLenPdf::15                      12                       # What write queue length does an incoming req see
system.mem_ctrl.wrQLenPdf::16                      12                       # What write queue length does an incoming req see
system.mem_ctrl.wrQLenPdf::17                      13                       # What write queue length does an incoming req see
system.mem_ctrl.wrQLenPdf::18                      13                       # What write queue length does an incoming req see
system.mem_ctrl.wrQLenPdf::19                      13                       # What write queue length does an incoming req see
system.mem_ctrl.wrQLenPdf::20                      13                       # What write queue length does an incoming req see
system.mem_ctrl.wrQLenPdf::21                      14                       # What write queue length does an incoming req see
system.mem_ctrl.wrQLenPdf::22                      13                       # What write queue length does an incoming req see
system.mem_ctrl.wrQLenPdf::23                      13                       # What write queue length does an incoming req see
system.mem_ctrl.wrQLenPdf::24                      13                       # What write queue length does an incoming req see
system.mem_ctrl.wrQLenPdf::25                      13                       # What write queue length does an incoming req see
system.mem_ctrl.wrQLenPdf::26                      13                       # What write queue length does an incoming req see
system.mem_ctrl.wrQLenPdf::27                      13                       # What write queue length does an incoming req see
system.mem_ctrl.wrQLenPdf::28                      13                       # What write queue length does an incoming req see
system.mem_ctrl.wrQLenPdf::29                      12                       # What write queue length does an incoming req see
system.mem_ctrl.wrQLenPdf::30                      12                       # What write queue length does an incoming req see
system.mem_ctrl.wrQLenPdf::31                      12                       # What write queue length does an incoming req see
system.mem_ctrl.wrQLenPdf::32                      12                       # What write queue length does an incoming req see
system.mem_ctrl.wrQLenPdf::33                       0                       # What write queue length does an incoming req see
system.mem_ctrl.wrQLenPdf::34                       0                       # What write queue length does an incoming req see
system.mem_ctrl.wrQLenPdf::35                       0                       # What write queue length does an incoming req see
system.mem_ctrl.wrQLenPdf::36                       0                       # What write queue length does an incoming req see
system.mem_ctrl.wrQLenPdf::37                       0                       # What write queue length does an incoming req see
system.mem_ctrl.wrQLenPdf::38                       0                       # What write queue length does an incoming req see
system.mem_ctrl.wrQLenPdf::39                       0                       # What write queue length does an incoming req see
system.mem_ctrl.wrQLenPdf::40                       0                       # What write queue length does an incoming req see
system.mem_ctrl.wrQLenPdf::41                       0                       # What write queue length does an incoming req see
system.mem_ctrl.wrQLenPdf::42                       0                       # What write queue length does an incoming req see
system.mem_ctrl.wrQLenPdf::43                       0                       # What write queue length does an incoming req see
system.mem_ctrl.wrQLenPdf::44                       0                       # What write queue length does an incoming req see
system.mem_ctrl.wrQLenPdf::45                       0                       # What write queue length does an incoming req see
system.mem_ctrl.wrQLenPdf::46                       0                       # What write queue length does an incoming req see
system.mem_ctrl.wrQLenPdf::47                       0                       # What write queue length does an incoming req see
system.mem_ctrl.wrQLenPdf::48                       0                       # What write queue length does an incoming req see
system.mem_ctrl.wrQLenPdf::49                       0                       # What write queue length does an incoming req see
system.mem_ctrl.wrQLenPdf::50                       0                       # What write queue length does an incoming req see
system.mem_ctrl.wrQLenPdf::51                       0                       # What write queue length does an incoming req see
system.mem_ctrl.wrQLenPdf::52                       0                       # What write queue length does an incoming req see
system.mem_ctrl.wrQLenPdf::53                       0                       # What write queue length does an incoming req see
system.mem_ctrl.wrQLenPdf::54                       0                       # What write queue length does an incoming req see
system.mem_ctrl.wrQLenPdf::55                       0                       # What write queue length does an incoming req see
system.mem_ctrl.wrQLenPdf::56                       0                       # What write queue length does an incoming req see
system.mem_ctrl.wrQLenPdf::57                       0                       # What write queue length does an incoming req see
system.mem_ctrl.wrQLenPdf::58                       0                       # What write queue length does an incoming req see
system.mem_ctrl.wrQLenPdf::59                       0                       # What write queue length does an incoming req see
system.mem_ctrl.wrQLenPdf::60                       0                       # What write queue length does an incoming req see
system.mem_ctrl.wrQLenPdf::61                       0                       # What write queue length does an incoming req see
system.mem_ctrl.wrQLenPdf::62                       0                       # What write queue length does an incoming req see
system.mem_ctrl.wrQLenPdf::63                       0                       # What write queue length does an incoming req see
system.mem_ctrl.writeBursts                       316                       # Number of DRAM write bursts, including those merged in the write queue
system.mem_ctrl.writePktSize::0                     0                       # Write request sizes (log2)
system.mem_ctrl.writePktSize::1                     0                       # Write request sizes (log2)
system.mem_ctrl.writePktSize::2                     0                       # Write request sizes (log2)
system.mem_ctrl.writePktSize::3                     0                       # Write request sizes (log2)
system.mem_ctrl.writePktSize::4                     0                       # Write request sizes (log2)
system.mem_ctrl.writePktSize::5                     0                       # Write request sizes (log2)
system.mem_ctrl.writePktSize::6                   316                       # Write request sizes (log2)
system.mem_ctrl.writeReqs                         316                       # Number of write requests accepted
system.mem_ctrl.writeRowHitRate                 62.70                       # Row buffer hit rate for writes
system.mem_ctrl.writeRowHits                      153                       # Number of row buffer hits during writes
system.mem_ctrl_0.actBackEnergy            2243479530                       # Energy for active background per rank (pJ)
system.mem_ctrl_0.actEnergy                 214028640                       # Energy for activate commands per rank (pJ)
system.mem_ctrl_0.actPowerDownEnergy      37739839650                       # Energy for active power-down per rank (pJ)
system.mem_ctrl_0.averagePower             415.984965                       # Core power per rank (mW)
system.mem_ctrl_0.memoryStateTime::IDLE      88025000                       # Time in different power states
system.mem_ctrl_0.memoryStateTime::REF     3396120000                       # Time in different power states
system.mem_ctrl_0.memoryStateTime::SREF   67225087000                       # Time in different power states
system.mem_ctrl_0.memoryStateTime::PRE_PDN  13511284250                       # Time in different power states
system.mem_ctrl_0.memoryStateTime::ACT     1960409750                       # Time in different power states
system.mem_ctrl_0.memoryStateTime::ACT_PDN  82763347000                       # Time in different power states
system.mem_ctrl_0.preBackEnergy             201573600                       # Energy for precharge background per rank (pJ)
system.mem_ctrl_0.preEnergy                 113755125                       # Energy for precharge commands per rank (pJ)
system.mem_ctrl_0.prePowerDownEnergy       5188429920                       # Energy for precharge power-down per rank (pJ)
system.mem_ctrl_0.readEnergy                394199400                       # Energy for read commands per rank (pJ)
system.mem_ctrl_0.refreshEnergy          8028427680.000001                       # Energy for refresh commands per rank (pJ)
system.mem_ctrl_0.selfRefreshEnergy       16153901940                       # Energy for self refresh per rank (pJ)
system.mem_ctrl_0.totalEnergy             70278277545                       # Total energy per rank (pJ)
system.mem_ctrl_0.totalIdleTime          163499648000                       # Total Idle time Per DRAM Rank
system.mem_ctrl_0.writeEnergy                  642060                       # Energy for write commands per rank (pJ)
system.mem_ctrl_1.actBackEnergy            2225981670                       # Energy for active background per rank (pJ)
system.mem_ctrl_1.actEnergy                 209773200                       # Energy for activate commands per rank (pJ)
system.mem_ctrl_1.actPowerDownEnergy      37654734660                       # Energy for active power-down per rank (pJ)
system.mem_ctrl_1.averagePower             415.781947                       # Core power per rank (mW)
system.mem_ctrl_1.memoryStateTime::IDLE      89269000                       # Time in different power states
system.mem_ctrl_1.memoryStateTime::REF     3394040000                       # Time in different power states
system.mem_ctrl_1.memoryStateTime::SREF   67290873250                       # Time in different power states
system.mem_ctrl_1.memoryStateTime::PRE_PDN  13674346000                       # Time in different power states
system.mem_ctrl_1.memoryStateTime::ACT     1920054750                       # Time in different power states
system.mem_ctrl_1.memoryStateTime::ACT_PDN  82575690000                       # Time in different power states
system.mem_ctrl_1.preBackEnergy             200509920                       # Energy for precharge background per rank (pJ)
system.mem_ctrl_1.preEnergy                 111493305                       # Energy for precharge commands per rank (pJ)
system.mem_ctrl_1.prePowerDownEnergy       5250635520                       # Energy for precharge power-down per rank (pJ)
system.mem_ctrl_1.readEnergy                395513160                       # Energy for read commands per rank (pJ)
system.mem_ctrl_1.refreshEnergy          8023510560.000001                       # Energy for refresh commands per rank (pJ)
system.mem_ctrl_1.selfRefreshEnergy       16171346460                       # Energy for self refresh per rank (pJ)
system.mem_ctrl_1.totalEnergy             70243978695                       # Total energy per rank (pJ)
system.mem_ctrl_1.totalIdleTime          163540905000                       # Total Idle time Per DRAM Rank
system.mem_ctrl_1.writeEnergy                  480240                       # Energy for write commands per rank (pJ)
system.membus.pkt_count_system.l2cache.mem_side::system.mem_ctrl.port       324991                       # Packet count per connected master and slave (bytes)
system.membus.pkt_count::total                 324991                       # Packet count per connected master and slave (bytes)
system.membus.pkt_size_system.l2cache.mem_side::system.mem_ctrl.port      7107648                       # Cumulative packet size per connected master and slave (bytes)
system.membus.pkt_size::total                 7107648                       # Cumulative packet size per connected master and slave (bytes)
system.membus.pwrStateResidencyTicks::UNDEFINED 168944273000                       # Cumulative time (in ticks) in various power states
system.membus.reqLayer0.occupancy           215475000                       # Layer occupancy (ticks)
system.membus.reqLayer0.utilization               0.1                       # Layer utilization (%)
system.membus.respLayer0.occupancy          598791000                       # Layer occupancy (ticks)
system.membus.respLayer0.utilization              0.4                       # Layer utilization (%)
system.membus.snoopTraffic                          0                       # Total snoop traffic (bytes)
system.membus.snoop_fanout::samples            110785                       # Request fanout histogram
system.membus.snoop_fanout::mean                    0                       # Request fanout histogram
system.membus.snoop_fanout::stdev                   0                       # Request fanout histogram
system.membus.snoop_fanout::underflows              0      0.00%      0.00% # Request fanout histogram
system.membus.snoop_fanout::0                  110785    100.00%    100.00% # Request fanout histogram
system.membus.snoop_fanout::1                       0      0.00%    100.00% # Request fanout histogram
system.membus.snoop_fanout::overflows               0      0.00%    100.00% # Request fanout histogram
system.membus.snoop_fanout::min_value               0                       # Request fanout histogram
system.membus.snoop_fanout::max_value               0                       # Request fanout histogram
system.membus.snoop_fanout::total              110785                       # Request fanout histogram
system.membus.snoop_filter.hit_multi_requests            0                       # Number of requests hitting in the snoop filter with multiple (>1) holders of the requested data.
system.membus.snoop_filter.hit_multi_snoops            0                       # Number of snoops hitting in the snoop filter with multiple (>1) holders of the requested data.
system.membus.snoop_filter.hit_single_requests       103737                       # Number of requests hitting in the snoop filter with a single holder of the requested data.
system.membus.snoop_filter.hit_single_snoops            0                       # Number of snoops hitting in the snoop filter with a single holder of the requested data.
system.membus.snoop_filter.tot_requests        214250                       # Total number of requests made to the snoop filter.
system.membus.snoop_filter.tot_snoops               0                       # Total number of snoops made to the snoop filter.
system.membus.snoops                               39                       # Total snoops (count)
system.membus.trans_dist::ReadResp             109969                       # Transaction distribution
system.membus.trans_dist::WritebackDirty          316                       # Transaction distribution
system.membus.trans_dist::CleanEvict           103149                       # Transaction distribution
system.membus.trans_dist::UpgradeReq               33                       # Transaction distribution
system.membus.trans_dist::SCUpgradeReq              7                       # Transaction distribution
system.membus.trans_dist::ReadExReq               773                       # Transaction distribution
system.membus.trans_dist::ReadExResp              772                       # Transaction distribution
system.membus.trans_dist::ReadSharedReq        109971                       # Transaction distribution
system.membus.trans_dist::InvalidateReq             1                       # Transaction distribution
system.pwrStateResidencyTicks::UNDEFINED 168944273000                       # Cumulative time (in ticks) in various power states
system.scheduler.requestFail                        0                       # Number of times which a column request a pe and there is no enough idle resource in other columns
system.scheduler.requestSuccess                     0                       # Number of times which a column request a pe and other columns had idle pe
system.scheduler.totalRequest                       0                       # Number total of request for PE

---------- End Simulation Statistics   ----------
