
---------- Begin Simulation Statistics ----------
final_tick                               169374590000                       # Number of ticks from beginning of simulation (restored from checkpoints and never reset)
host_inst_rate                                 116467                       # Simulator instruction rate (inst/s)
host_mem_usage                                 703876                       # Number of bytes of host memory used
host_op_rate                                   116467                       # Simulator op (including micro ops) rate (op/s)
host_seconds                                  2481.42                       # Real time elapsed on the host
host_tick_rate                               68257067                       # Simulator tick rate (ticks/s)
sim_freq                                 1000000000000                       # Frequency of simulated ticks
sim_insts                                   289002839                       # Number of instructions simulated
sim_ops                                     289003200                       # Number of ops (including micro ops) simulated
sim_seconds                                  0.169375                       # Number of seconds simulated
sim_ticks                                169374590000                       # Number of ticks simulated
system.clk_domain.clock                          1000                       # Clock period in ticks
system.clk_domain.voltage_domain.voltage            1                       # Voltage in Volts
system.cpu0.branchPred.BTBCorrect                   0                       # Number of correct BTB predictions (this stat may not work properly.
system.cpu0.branchPred.BTBHitPct            41.156463                       # BTB Hit Percentage
system.cpu0.branchPred.BTBHits                   3630                       # Number of BTB hits
system.cpu0.branchPred.BTBLookups                8820                       # Number of BTB lookups
system.cpu0.branchPred.RASInCorrect                 0                       # Number of incorrect RAS predictions.
system.cpu0.branchPred.condIncorrect             3842                       # Number of conditional branches incorrect
system.cpu0.branchPred.condPredicted            14321                       # Number of conditional branches predicted
system.cpu0.branchPred.indirectHits                43                       # Number of indirect target hits.
system.cpu0.branchPred.indirectLookups           4319                       # Number of indirect predictor lookups.
system.cpu0.branchPred.indirectMisses            4276                       # Number of indirect misses.
system.cpu0.branchPred.lookups                  20815                       # Number of BP lookups
system.cpu0.branchPred.usedRAS                      0                       # Number of times the RAS was used to get a target.
system.cpu0.branchPredindirectMispredicted         2082                       # Number of mispredicted indirect branches.
system.cpu0.bt.discartedCfgs                     1741                       # Number of discated configuration
system.cpu0.bt.endResource                          1                       # Number of configurations ended by lack of resource
system.cpu0.bt.endSpeculation                     237                       # Number of configurations ended due to reach the speculation limit
system.cpu0.bt.endUnknownInst                     572                       # Number of configurations ended due a unknown instruction
system.cpu0.bt.insts::samples                     443                       # Number of instructions mapped in this configuration
system.cpu0.bt.insts::mean                  22.291196                       # Number of instructions mapped in this configuration
system.cpu0.bt.insts::stdev                 12.833377                       # Number of instructions mapped in this configuration
system.cpu0.bt.insts::underflows                    0      0.00%      0.00% # Number of instructions mapped in this configuration
system.cpu0.bt.insts::0                             0      0.00%      0.00% # Number of instructions mapped in this configuration
system.cpu0.bt.insts::1                             0      0.00%      0.00% # Number of instructions mapped in this configuration
system.cpu0.bt.insts::2                             0      0.00%      0.00% # Number of instructions mapped in this configuration
system.cpu0.bt.insts::3                             0      0.00%      0.00% # Number of instructions mapped in this configuration
system.cpu0.bt.insts::4                            21      4.74%      4.74% # Number of instructions mapped in this configuration
system.cpu0.bt.insts::5                             3      0.68%      5.42% # Number of instructions mapped in this configuration
system.cpu0.bt.insts::6                            11      2.48%      7.90% # Number of instructions mapped in this configuration
system.cpu0.bt.insts::7                            13      2.93%     10.84% # Number of instructions mapped in this configuration
system.cpu0.bt.insts::8                            15      3.39%     14.22% # Number of instructions mapped in this configuration
system.cpu0.bt.insts::9                             8      1.81%     16.03% # Number of instructions mapped in this configuration
system.cpu0.bt.insts::10                            9      2.03%     18.06% # Number of instructions mapped in this configuration
system.cpu0.bt.insts::11                           18      4.06%     22.12% # Number of instructions mapped in this configuration
system.cpu0.bt.insts::12                           10      2.26%     24.38% # Number of instructions mapped in this configuration
system.cpu0.bt.insts::13                           10      2.26%     26.64% # Number of instructions mapped in this configuration
system.cpu0.bt.insts::14                           12      2.71%     29.35% # Number of instructions mapped in this configuration
system.cpu0.bt.insts::15                           13      2.93%     32.28% # Number of instructions mapped in this configuration
system.cpu0.bt.insts::16                           13      2.93%     35.21% # Number of instructions mapped in this configuration
system.cpu0.bt.insts::17                           22      4.97%     40.18% # Number of instructions mapped in this configuration
system.cpu0.bt.insts::18                           12      2.71%     42.89% # Number of instructions mapped in this configuration
system.cpu0.bt.insts::19                           15      3.39%     46.28% # Number of instructions mapped in this configuration
system.cpu0.bt.insts::20                           12      2.71%     48.98% # Number of instructions mapped in this configuration
system.cpu0.bt.insts::21                           17      3.84%     52.82% # Number of instructions mapped in this configuration
system.cpu0.bt.insts::22                           12      2.71%     55.53% # Number of instructions mapped in this configuration
system.cpu0.bt.insts::23                           12      2.71%     58.24% # Number of instructions mapped in this configuration
system.cpu0.bt.insts::24                           18      4.06%     62.30% # Number of instructions mapped in this configuration
system.cpu0.bt.insts::25                           14      3.16%     65.46% # Number of instructions mapped in this configuration
system.cpu0.bt.insts::26                            8      1.81%     67.27% # Number of instructions mapped in this configuration
system.cpu0.bt.insts::27                            9      2.03%     69.30% # Number of instructions mapped in this configuration
system.cpu0.bt.insts::28                           13      2.93%     72.23% # Number of instructions mapped in this configuration
system.cpu0.bt.insts::29                           10      2.26%     74.49% # Number of instructions mapped in this configuration
system.cpu0.bt.insts::30                            9      2.03%     76.52% # Number of instructions mapped in this configuration
system.cpu0.bt.insts::31                           14      3.16%     79.68% # Number of instructions mapped in this configuration
system.cpu0.bt.insts::32                            9      2.03%     81.72% # Number of instructions mapped in this configuration
system.cpu0.bt.insts::overflows                    81     18.28%    100.00% # Number of instructions mapped in this configuration
system.cpu0.bt.insts::min_value                     4                       # Number of instructions mapped in this configuration
system.cpu0.bt.insts::max_value                    94                       # Number of instructions mapped in this configuration
system.cpu0.bt.insts::total                       443                       # Number of instructions mapped in this configuration
system.cpu0.bt.ipc::samples                       443                       # IPC for generated configurations
system.cpu0.bt.ipc::mean                     2.048433                       # IPC for generated configurations
system.cpu0.bt.ipc::stdev                    0.400568                       # IPC for generated configurations
system.cpu0.bt.ipc::underflows                      0      0.00%      0.00% # IPC for generated configurations
system.cpu0.bt.ipc::0                               0      0.00%      0.00% # IPC for generated configurations
system.cpu0.bt.ipc::1                             173     39.05%     39.05% # IPC for generated configurations
system.cpu0.bt.ipc::2                             264     59.59%     98.65% # IPC for generated configurations
system.cpu0.bt.ipc::3                               6      1.35%    100.00% # IPC for generated configurations
system.cpu0.bt.ipc::4                               0      0.00%    100.00% # IPC for generated configurations
system.cpu0.bt.ipc::5                               0      0.00%    100.00% # IPC for generated configurations
system.cpu0.bt.ipc::6                               0      0.00%    100.00% # IPC for generated configurations
system.cpu0.bt.ipc::7                               0      0.00%    100.00% # IPC for generated configurations
system.cpu0.bt.ipc::8                               0      0.00%    100.00% # IPC for generated configurations
system.cpu0.bt.ipc::9                               0      0.00%    100.00% # IPC for generated configurations
system.cpu0.bt.ipc::10                              0      0.00%    100.00% # IPC for generated configurations
system.cpu0.bt.ipc::11                              0      0.00%    100.00% # IPC for generated configurations
system.cpu0.bt.ipc::12                              0      0.00%    100.00% # IPC for generated configurations
system.cpu0.bt.ipc::13                              0      0.00%    100.00% # IPC for generated configurations
system.cpu0.bt.ipc::14                              0      0.00%    100.00% # IPC for generated configurations
system.cpu0.bt.ipc::15                              0      0.00%    100.00% # IPC for generated configurations
system.cpu0.bt.ipc::16                              0      0.00%    100.00% # IPC for generated configurations
system.cpu0.bt.ipc::overflows                       0      0.00%    100.00% # IPC for generated configurations
system.cpu0.bt.ipc::min_value                       1                       # IPC for generated configurations
system.cpu0.bt.ipc::max_value                       3                       # IPC for generated configurations
system.cpu0.bt.ipc::total                         443                       # IPC for generated configurations
system.cpu0.commit.amos                           273                       # Number of atomic instructions committed
system.cpu0.commit.basicBlocks.number            1261                       # Number of different basic blocks executed
system.cpu0.commit.basicBlocks.size::samples        12244                       # Size of the basic blocks
system.cpu0.commit.basicBlocks.size::mean     5.122019                       # Size of the basic blocks
system.cpu0.commit.basicBlocks.size::stdev     4.576197                       # Size of the basic blocks
system.cpu0.commit.basicBlocks.size::underflows            0      0.00%      0.00% # Size of the basic blocks
system.cpu0.commit.basicBlocks.size::0-4         7512     61.35%     61.35% # Size of the basic blocks
system.cpu0.commit.basicBlocks.size::5-9         3069     25.07%     86.42% # Size of the basic blocks
system.cpu0.commit.basicBlocks.size::10-14          851      6.95%     93.37% # Size of the basic blocks
system.cpu0.commit.basicBlocks.size::15-19          536      4.38%     97.75% # Size of the basic blocks
system.cpu0.commit.basicBlocks.size::20-24          255      2.08%     99.83% # Size of the basic blocks
system.cpu0.commit.basicBlocks.size::25-29           18      0.15%     99.98% # Size of the basic blocks
system.cpu0.commit.basicBlocks.size::30-34            0      0.00%     99.98% # Size of the basic blocks
system.cpu0.commit.basicBlocks.size::35-39            1      0.01%     99.98% # Size of the basic blocks
system.cpu0.commit.basicBlocks.size::40-44            0      0.00%     99.98% # Size of the basic blocks
system.cpu0.commit.basicBlocks.size::45-49            1      0.01%     99.99% # Size of the basic blocks
system.cpu0.commit.basicBlocks.size::50             0      0.00%     99.99% # Size of the basic blocks
system.cpu0.commit.basicBlocks.size::overflows            1      0.01%    100.00% # Size of the basic blocks
system.cpu0.commit.basicBlocks.size::min_value            1                       # Size of the basic blocks
system.cpu0.commit.basicBlocks.size::max_value           63                       # Size of the basic blocks
system.cpu0.commit.basicBlocks.size::total        12244                       # Size of the basic blocks
system.cpu0.commit.basicBlocks.totalBasicBlocks        12244                       # Number of total basic blocks executed
system.cpu0.commit.basicBlocks.trace::samples        12244                       # Basic block distribution
system.cpu0.commit.basicBlocks.trace::66376            1                       # Basic block distribution
system.cpu0.commit.basicBlocks.trace::66388            1                       # Basic block distribution
system.cpu0.commit.basicBlocks.trace::66404            1                       # Basic block distribution
system.cpu0.commit.basicBlocks.trace::66420            1                       # Basic block distribution
system.cpu0.commit.basicBlocks.trace::66438            1                       # Basic block distribution
system.cpu0.commit.basicBlocks.trace::66442            1                       # Basic block distribution
system.cpu0.commit.basicBlocks.trace::66456            1                       # Basic block distribution
system.cpu0.commit.basicBlocks.trace::66458            1                       # Basic block distribution
system.cpu0.commit.basicBlocks.trace::66464            1                       # Basic block distribution
system.cpu0.commit.basicBlocks.trace::66486            1                       # Basic block distribution
system.cpu0.commit.basicBlocks.trace::66498            1                       # Basic block distribution
system.cpu0.commit.basicBlocks.trace::66506            1                       # Basic block distribution
system.cpu0.commit.basicBlocks.trace::66510            1                       # Basic block distribution
system.cpu0.commit.basicBlocks.trace::66524            1                       # Basic block distribution
system.cpu0.commit.basicBlocks.trace::66664            1                       # Basic block distribution
system.cpu0.commit.basicBlocks.trace::66668            1                       # Basic block distribution
system.cpu0.commit.basicBlocks.trace::66708            2                       # Basic block distribution
system.cpu0.commit.basicBlocks.trace::66718            1                       # Basic block distribution
system.cpu0.commit.basicBlocks.trace::66756            1                       # Basic block distribution
system.cpu0.commit.basicBlocks.trace::66758            1                       # Basic block distribution
system.cpu0.commit.basicBlocks.trace::66806            1                       # Basic block distribution
system.cpu0.commit.basicBlocks.trace::66808            1                       # Basic block distribution
system.cpu0.commit.basicBlocks.trace::66820            1                       # Basic block distribution
system.cpu0.commit.basicBlocks.trace::66824            1                       # Basic block distribution
system.cpu0.commit.basicBlocks.trace::66834            1                       # Basic block distribution
system.cpu0.commit.basicBlocks.trace::66846            1                       # Basic block distribution
system.cpu0.commit.basicBlocks.trace::66860            1                       # Basic block distribution
system.cpu0.commit.basicBlocks.trace::66870            1                       # Basic block distribution
system.cpu0.commit.basicBlocks.trace::66890            1                       # Basic block distribution
system.cpu0.commit.basicBlocks.trace::66902            1                       # Basic block distribution
system.cpu0.commit.basicBlocks.trace::66932            1                       # Basic block distribution
system.cpu0.commit.basicBlocks.trace::66964           16                       # Basic block distribution
system.cpu0.commit.basicBlocks.trace::66974           16                       # Basic block distribution
system.cpu0.commit.basicBlocks.trace::66980           16                       # Basic block distribution
system.cpu0.commit.basicBlocks.trace::66992           16                       # Basic block distribution
system.cpu0.commit.basicBlocks.trace::67008           16                       # Basic block distribution
system.cpu0.commit.basicBlocks.trace::67020           16                       # Basic block distribution
system.cpu0.commit.basicBlocks.trace::67038           16                       # Basic block distribution
system.cpu0.commit.basicBlocks.trace::67048           16                       # Basic block distribution
system.cpu0.commit.basicBlocks.trace::67062           16                       # Basic block distribution
system.cpu0.commit.basicBlocks.trace::67080            1                       # Basic block distribution
system.cpu0.commit.basicBlocks.trace::67220            1                       # Basic block distribution
system.cpu0.commit.basicBlocks.trace::67238            1                       # Basic block distribution
system.cpu0.commit.basicBlocks.trace::67252            1                       # Basic block distribution
system.cpu0.commit.basicBlocks.trace::67268            1                       # Basic block distribution
system.cpu0.commit.basicBlocks.trace::67292            1                       # Basic block distribution
system.cpu0.commit.basicBlocks.trace::67314            2                       # Basic block distribution
system.cpu0.commit.basicBlocks.trace::67330            3                       # Basic block distribution
system.cpu0.commit.basicBlocks.trace::67344            1                       # Basic block distribution
system.cpu0.commit.basicBlocks.trace::67422            1                       # Basic block distribution
system.cpu0.commit.basicBlocks.trace::67430            1                       # Basic block distribution
system.cpu0.commit.basicBlocks.trace::67454            2                       # Basic block distribution
system.cpu0.commit.basicBlocks.trace::67478            1                       # Basic block distribution
system.cpu0.commit.basicBlocks.trace::67518            1                       # Basic block distribution
system.cpu0.commit.basicBlocks.trace::67542            1                       # Basic block distribution
system.cpu0.commit.basicBlocks.trace::67560            2                       # Basic block distribution
system.cpu0.commit.basicBlocks.trace::67572            3                       # Basic block distribution
system.cpu0.commit.basicBlocks.trace::67586            3                       # Basic block distribution
system.cpu0.commit.basicBlocks.trace::67598            3                       # Basic block distribution
system.cpu0.commit.basicBlocks.trace::67610            3                       # Basic block distribution
system.cpu0.commit.basicBlocks.trace::67618            1                       # Basic block distribution
system.cpu0.commit.basicBlocks.trace::67666            1                       # Basic block distribution
system.cpu0.commit.basicBlocks.trace::67688            1                       # Basic block distribution
system.cpu0.commit.basicBlocks.trace::67706            1                       # Basic block distribution
system.cpu0.commit.basicBlocks.trace::67710            1                       # Basic block distribution
system.cpu0.commit.basicBlocks.trace::67714            1                       # Basic block distribution
system.cpu0.commit.basicBlocks.trace::67718            1                       # Basic block distribution
system.cpu0.commit.basicBlocks.trace::67726            1                       # Basic block distribution
system.cpu0.commit.basicBlocks.trace::67736            2                       # Basic block distribution
system.cpu0.commit.basicBlocks.trace::67746            3                       # Basic block distribution
system.cpu0.commit.basicBlocks.trace::67756            1                       # Basic block distribution
system.cpu0.commit.basicBlocks.trace::69038            3                       # Basic block distribution
system.cpu0.commit.basicBlocks.trace::69064            6                       # Basic block distribution
system.cpu0.commit.basicBlocks.trace::69138            3                       # Basic block distribution
system.cpu0.commit.basicBlocks.trace::69162            3                       # Basic block distribution
system.cpu0.commit.basicBlocks.trace::69166            3                       # Basic block distribution
system.cpu0.commit.basicBlocks.trace::69172            3                       # Basic block distribution
system.cpu0.commit.basicBlocks.trace::69182            3                       # Basic block distribution
system.cpu0.commit.basicBlocks.trace::69214            3                       # Basic block distribution
system.cpu0.commit.basicBlocks.trace::69220            3                       # Basic block distribution
system.cpu0.commit.basicBlocks.trace::69228            3                       # Basic block distribution
system.cpu0.commit.basicBlocks.trace::69260            3                       # Basic block distribution
system.cpu0.commit.basicBlocks.trace::69300            3                       # Basic block distribution
system.cpu0.commit.basicBlocks.trace::70064            3                       # Basic block distribution
system.cpu0.commit.basicBlocks.trace::70090            3                       # Basic block distribution
system.cpu0.commit.basicBlocks.trace::70096            3                       # Basic block distribution
system.cpu0.commit.basicBlocks.trace::70100            3                       # Basic block distribution
system.cpu0.commit.basicBlocks.trace::70110            3                       # Basic block distribution
system.cpu0.commit.basicBlocks.trace::70116            3                       # Basic block distribution
system.cpu0.commit.basicBlocks.trace::70130            3                       # Basic block distribution
system.cpu0.commit.basicBlocks.trace::70152            3                       # Basic block distribution
system.cpu0.commit.basicBlocks.trace::70174            3                       # Basic block distribution
system.cpu0.commit.basicBlocks.trace::72418            3                       # Basic block distribution
system.cpu0.commit.basicBlocks.trace::72436            3                       # Basic block distribution
system.cpu0.commit.basicBlocks.trace::72450            3                       # Basic block distribution
system.cpu0.commit.basicBlocks.trace::73166            3                       # Basic block distribution
system.cpu0.commit.basicBlocks.trace::73216            3                       # Basic block distribution
system.cpu0.commit.basicBlocks.trace::73220            3                       # Basic block distribution
system.cpu0.commit.basicBlocks.trace::73238            3                       # Basic block distribution
system.cpu0.commit.basicBlocks.trace::73246            3                       # Basic block distribution
system.cpu0.commit.basicBlocks.trace::73260            3                       # Basic block distribution
system.cpu0.commit.basicBlocks.trace::73266            3                       # Basic block distribution
system.cpu0.commit.basicBlocks.trace::73272            3                       # Basic block distribution
system.cpu0.commit.basicBlocks.trace::73302            3                       # Basic block distribution
system.cpu0.commit.basicBlocks.trace::73312            3                       # Basic block distribution
system.cpu0.commit.basicBlocks.trace::73358            3                       # Basic block distribution
system.cpu0.commit.basicBlocks.trace::73400            3                       # Basic block distribution
system.cpu0.commit.basicBlocks.trace::73414            3                       # Basic block distribution
system.cpu0.commit.basicBlocks.trace::73420            3                       # Basic block distribution
system.cpu0.commit.basicBlocks.trace::73426            3                       # Basic block distribution
system.cpu0.commit.basicBlocks.trace::73654            3                       # Basic block distribution
system.cpu0.commit.basicBlocks.trace::73662            3                       # Basic block distribution
system.cpu0.commit.basicBlocks.trace::73676            3                       # Basic block distribution
system.cpu0.commit.basicBlocks.trace::73764            3                       # Basic block distribution
system.cpu0.commit.basicBlocks.trace::73824            3                       # Basic block distribution
system.cpu0.commit.basicBlocks.trace::73834            3                       # Basic block distribution
system.cpu0.commit.basicBlocks.trace::73868            3                       # Basic block distribution
system.cpu0.commit.basicBlocks.trace::73884            3                       # Basic block distribution
system.cpu0.commit.basicBlocks.trace::73890            3                       # Basic block distribution
system.cpu0.commit.basicBlocks.trace::73898            3                       # Basic block distribution
system.cpu0.commit.basicBlocks.trace::73910            3                       # Basic block distribution
system.cpu0.commit.basicBlocks.trace::74400            3                       # Basic block distribution
system.cpu0.commit.basicBlocks.trace::74422            3                       # Basic block distribution
system.cpu0.commit.basicBlocks.trace::74430            3                       # Basic block distribution
system.cpu0.commit.basicBlocks.trace::74454            3                       # Basic block distribution
system.cpu0.commit.basicBlocks.trace::74470            3                       # Basic block distribution
system.cpu0.commit.basicBlocks.trace::74474            3                       # Basic block distribution
system.cpu0.commit.basicBlocks.trace::74502            3                       # Basic block distribution
system.cpu0.commit.basicBlocks.trace::74520            3                       # Basic block distribution
system.cpu0.commit.basicBlocks.trace::74528            3                       # Basic block distribution
system.cpu0.commit.basicBlocks.trace::74596            3                       # Basic block distribution
system.cpu0.commit.basicBlocks.trace::74608            3                       # Basic block distribution
system.cpu0.commit.basicBlocks.trace::74620            3                       # Basic block distribution
system.cpu0.commit.basicBlocks.trace::74626            3                       # Basic block distribution
system.cpu0.commit.basicBlocks.trace::74634            3                       # Basic block distribution
system.cpu0.commit.basicBlocks.trace::74652            3                       # Basic block distribution
system.cpu0.commit.basicBlocks.trace::74678            3                       # Basic block distribution
system.cpu0.commit.basicBlocks.trace::74828            1                       # Basic block distribution
system.cpu0.commit.basicBlocks.trace::74836            1                       # Basic block distribution
system.cpu0.commit.basicBlocks.trace::75884            3                       # Basic block distribution
system.cpu0.commit.basicBlocks.trace::75892            3                       # Basic block distribution
system.cpu0.commit.basicBlocks.trace::75900            3                       # Basic block distribution
system.cpu0.commit.basicBlocks.trace::75940            3                       # Basic block distribution
system.cpu0.commit.basicBlocks.trace::75944            3                       # Basic block distribution
system.cpu0.commit.basicBlocks.trace::75954            3                       # Basic block distribution
system.cpu0.commit.basicBlocks.trace::75962            3                       # Basic block distribution
system.cpu0.commit.basicBlocks.trace::75970            3                       # Basic block distribution
system.cpu0.commit.basicBlocks.trace::75976            3                       # Basic block distribution
system.cpu0.commit.basicBlocks.trace::75978            3                       # Basic block distribution
system.cpu0.commit.basicBlocks.trace::75988            2                       # Basic block distribution
system.cpu0.commit.basicBlocks.trace::76008            3                       # Basic block distribution
system.cpu0.commit.basicBlocks.trace::76014            3                       # Basic block distribution
system.cpu0.commit.basicBlocks.trace::76022            3                       # Basic block distribution
system.cpu0.commit.basicBlocks.trace::76036            3                       # Basic block distribution
system.cpu0.commit.basicBlocks.trace::76042            3                       # Basic block distribution
system.cpu0.commit.basicBlocks.trace::76144            1                       # Basic block distribution
system.cpu0.commit.basicBlocks.trace::76162            1                       # Basic block distribution
system.cpu0.commit.basicBlocks.trace::76166            1                       # Basic block distribution
system.cpu0.commit.basicBlocks.trace::76178            1                       # Basic block distribution
system.cpu0.commit.basicBlocks.trace::76186            1                       # Basic block distribution
system.cpu0.commit.basicBlocks.trace::76188            1                       # Basic block distribution
system.cpu0.commit.basicBlocks.trace::76214            1                       # Basic block distribution
system.cpu0.commit.basicBlocks.trace::76450            1                       # Basic block distribution
system.cpu0.commit.basicBlocks.trace::76458            1                       # Basic block distribution
system.cpu0.commit.basicBlocks.trace::77778            2                       # Basic block distribution
system.cpu0.commit.basicBlocks.trace::77790            2                       # Basic block distribution
system.cpu0.commit.basicBlocks.trace::77806            2                       # Basic block distribution
system.cpu0.commit.basicBlocks.trace::77816            2                       # Basic block distribution
system.cpu0.commit.basicBlocks.trace::77822            2                       # Basic block distribution
system.cpu0.commit.basicBlocks.trace::77826            2                       # Basic block distribution
system.cpu0.commit.basicBlocks.trace::77832            2                       # Basic block distribution
system.cpu0.commit.basicBlocks.trace::80142            2                       # Basic block distribution
system.cpu0.commit.basicBlocks.trace::80152            2                       # Basic block distribution
system.cpu0.commit.basicBlocks.trace::80162            2                       # Basic block distribution
system.cpu0.commit.basicBlocks.trace::80168            2                       # Basic block distribution
system.cpu0.commit.basicBlocks.trace::80186            2                       # Basic block distribution
system.cpu0.commit.basicBlocks.trace::80190            2                       # Basic block distribution
system.cpu0.commit.basicBlocks.trace::80376            2                       # Basic block distribution
system.cpu0.commit.basicBlocks.trace::81380            3                       # Basic block distribution
system.cpu0.commit.basicBlocks.trace::81396            3                       # Basic block distribution
system.cpu0.commit.basicBlocks.trace::81412            3                       # Basic block distribution
system.cpu0.commit.basicBlocks.trace::81414            3                       # Basic block distribution
system.cpu0.commit.basicBlocks.trace::81430            3                       # Basic block distribution
system.cpu0.commit.basicBlocks.trace::81446            3                       # Basic block distribution
system.cpu0.commit.basicBlocks.trace::81452            3                       # Basic block distribution
system.cpu0.commit.basicBlocks.trace::81458            3                       # Basic block distribution
system.cpu0.commit.basicBlocks.trace::81468            3                       # Basic block distribution
system.cpu0.commit.basicBlocks.trace::81502            3                       # Basic block distribution
system.cpu0.commit.basicBlocks.trace::81506            3                       # Basic block distribution
system.cpu0.commit.basicBlocks.trace::81530            3                       # Basic block distribution
system.cpu0.commit.basicBlocks.trace::81536            3                       # Basic block distribution
system.cpu0.commit.basicBlocks.trace::81542            3                       # Basic block distribution
system.cpu0.commit.basicBlocks.trace::81550            3                       # Basic block distribution
system.cpu0.commit.basicBlocks.trace::83074            1                       # Basic block distribution
system.cpu0.commit.basicBlocks.trace::83196           15                       # Basic block distribution
system.cpu0.commit.basicBlocks.trace::83206            1                       # Basic block distribution
system.cpu0.commit.basicBlocks.trace::83232            1                       # Basic block distribution
system.cpu0.commit.basicBlocks.trace::83262            1                       # Basic block distribution
system.cpu0.commit.basicBlocks.trace::83302            1                       # Basic block distribution
system.cpu0.commit.basicBlocks.trace::83322            1                       # Basic block distribution
system.cpu0.commit.basicBlocks.trace::83358            1                       # Basic block distribution
system.cpu0.commit.basicBlocks.trace::83360            1                       # Basic block distribution
system.cpu0.commit.basicBlocks.trace::83368            1                       # Basic block distribution
system.cpu0.commit.basicBlocks.trace::83382            1                       # Basic block distribution
system.cpu0.commit.basicBlocks.trace::83404            1                       # Basic block distribution
system.cpu0.commit.basicBlocks.trace::83434            1                       # Basic block distribution
system.cpu0.commit.basicBlocks.trace::83440            1                       # Basic block distribution
system.cpu0.commit.basicBlocks.trace::83444            1                       # Basic block distribution
system.cpu0.commit.basicBlocks.trace::83484            1                       # Basic block distribution
system.cpu0.commit.basicBlocks.trace::83534            1                       # Basic block distribution
system.cpu0.commit.basicBlocks.trace::83894            2                       # Basic block distribution
system.cpu0.commit.basicBlocks.trace::83908            2                       # Basic block distribution
system.cpu0.commit.basicBlocks.trace::83928            2                       # Basic block distribution
system.cpu0.commit.basicBlocks.trace::83952            2                       # Basic block distribution
system.cpu0.commit.basicBlocks.trace::83964            2                       # Basic block distribution
system.cpu0.commit.basicBlocks.trace::83974            2                       # Basic block distribution
system.cpu0.commit.basicBlocks.trace::99520            1                       # Basic block distribution
system.cpu0.commit.basicBlocks.trace::99556            1                       # Basic block distribution
system.cpu0.commit.basicBlocks.trace::99574            1                       # Basic block distribution
system.cpu0.commit.basicBlocks.trace::99604            1                       # Basic block distribution
system.cpu0.commit.basicBlocks.trace::99630            1                       # Basic block distribution
system.cpu0.commit.basicBlocks.trace::99664            1                       # Basic block distribution
system.cpu0.commit.basicBlocks.trace::99666            1                       # Basic block distribution
system.cpu0.commit.basicBlocks.trace::99670            1                       # Basic block distribution
system.cpu0.commit.basicBlocks.trace::99894            1                       # Basic block distribution
system.cpu0.commit.basicBlocks.trace::99906            1                       # Basic block distribution
system.cpu0.commit.basicBlocks.trace::99910            1                       # Basic block distribution
system.cpu0.commit.basicBlocks.trace::99924            1                       # Basic block distribution
system.cpu0.commit.basicBlocks.trace::99942            1                       # Basic block distribution
system.cpu0.commit.basicBlocks.trace::99956            1                       # Basic block distribution
system.cpu0.commit.basicBlocks.trace::99962            1                       # Basic block distribution
system.cpu0.commit.basicBlocks.trace::100022            1                       # Basic block distribution
system.cpu0.commit.basicBlocks.trace::100026            1                       # Basic block distribution
system.cpu0.commit.basicBlocks.trace::100044            1                       # Basic block distribution
system.cpu0.commit.basicBlocks.trace::100062            1                       # Basic block distribution
system.cpu0.commit.basicBlocks.trace::100120            1                       # Basic block distribution
system.cpu0.commit.basicBlocks.trace::100132            1                       # Basic block distribution
system.cpu0.commit.basicBlocks.trace::100550            1                       # Basic block distribution
system.cpu0.commit.basicBlocks.trace::100594            1                       # Basic block distribution
system.cpu0.commit.basicBlocks.trace::100630            1                       # Basic block distribution
system.cpu0.commit.basicBlocks.trace::100634            1                       # Basic block distribution
system.cpu0.commit.basicBlocks.trace::100646            1                       # Basic block distribution
system.cpu0.commit.basicBlocks.trace::100650            1                       # Basic block distribution
system.cpu0.commit.basicBlocks.trace::100658            1                       # Basic block distribution
system.cpu0.commit.basicBlocks.trace::100662            1                       # Basic block distribution
system.cpu0.commit.basicBlocks.trace::100754            1                       # Basic block distribution
system.cpu0.commit.basicBlocks.trace::100764            1                       # Basic block distribution
system.cpu0.commit.basicBlocks.trace::100768            1                       # Basic block distribution
system.cpu0.commit.basicBlocks.trace::100868            1                       # Basic block distribution
system.cpu0.commit.basicBlocks.trace::100880            1                       # Basic block distribution
system.cpu0.commit.basicBlocks.trace::100882            1                       # Basic block distribution
system.cpu0.commit.basicBlocks.trace::100892            1                       # Basic block distribution
system.cpu0.commit.basicBlocks.trace::100904            1                       # Basic block distribution
system.cpu0.commit.basicBlocks.trace::100906            1                       # Basic block distribution
system.cpu0.commit.basicBlocks.trace::100916            1                       # Basic block distribution
system.cpu0.commit.basicBlocks.trace::100924            1                       # Basic block distribution
system.cpu0.commit.basicBlocks.trace::100930            1                       # Basic block distribution
system.cpu0.commit.basicBlocks.trace::100932            1                       # Basic block distribution
system.cpu0.commit.basicBlocks.trace::100962            1                       # Basic block distribution
system.cpu0.commit.basicBlocks.trace::101044            1                       # Basic block distribution
system.cpu0.commit.basicBlocks.trace::101048            1                       # Basic block distribution
system.cpu0.commit.basicBlocks.trace::101052            1                       # Basic block distribution
system.cpu0.commit.basicBlocks.trace::101066            1                       # Basic block distribution
system.cpu0.commit.basicBlocks.trace::101348            1                       # Basic block distribution
system.cpu0.commit.basicBlocks.trace::101388            1                       # Basic block distribution
system.cpu0.commit.basicBlocks.trace::101410            1                       # Basic block distribution
system.cpu0.commit.basicBlocks.trace::101418            1                       # Basic block distribution
system.cpu0.commit.basicBlocks.trace::101422            3                       # Basic block distribution
system.cpu0.commit.basicBlocks.trace::101428            3                       # Basic block distribution
system.cpu0.commit.basicBlocks.trace::101458            1                       # Basic block distribution
system.cpu0.commit.basicBlocks.trace::101480            1                       # Basic block distribution
system.cpu0.commit.basicBlocks.trace::101542            1                       # Basic block distribution
system.cpu0.commit.basicBlocks.trace::101690            1                       # Basic block distribution
system.cpu0.commit.basicBlocks.trace::101710            1                       # Basic block distribution
system.cpu0.commit.basicBlocks.trace::101714            1                       # Basic block distribution
system.cpu0.commit.basicBlocks.trace::101812            1                       # Basic block distribution
system.cpu0.commit.basicBlocks.trace::101862            1                       # Basic block distribution
system.cpu0.commit.basicBlocks.trace::101880            1                       # Basic block distribution
system.cpu0.commit.basicBlocks.trace::101886            1                       # Basic block distribution
system.cpu0.commit.basicBlocks.trace::101914            1                       # Basic block distribution
system.cpu0.commit.basicBlocks.trace::101932            1                       # Basic block distribution
system.cpu0.commit.basicBlocks.trace::101938            1                       # Basic block distribution
system.cpu0.commit.basicBlocks.trace::101956            1                       # Basic block distribution
system.cpu0.commit.basicBlocks.trace::101990            1                       # Basic block distribution
system.cpu0.commit.basicBlocks.trace::102000            1                       # Basic block distribution
system.cpu0.commit.basicBlocks.trace::102008            2                       # Basic block distribution
system.cpu0.commit.basicBlocks.trace::102012            1                       # Basic block distribution
system.cpu0.commit.basicBlocks.trace::102330            1                       # Basic block distribution
system.cpu0.commit.basicBlocks.trace::102348            1                       # Basic block distribution
system.cpu0.commit.basicBlocks.trace::115892            1                       # Basic block distribution
system.cpu0.commit.basicBlocks.trace::115900            1                       # Basic block distribution
system.cpu0.commit.basicBlocks.trace::116000            1                       # Basic block distribution
system.cpu0.commit.basicBlocks.trace::116010            1                       # Basic block distribution
system.cpu0.commit.basicBlocks.trace::117626            7                       # Basic block distribution
system.cpu0.commit.basicBlocks.trace::117650            7                       # Basic block distribution
system.cpu0.commit.basicBlocks.trace::117658            7                       # Basic block distribution
system.cpu0.commit.basicBlocks.trace::117760            7                       # Basic block distribution
system.cpu0.commit.basicBlocks.trace::117782            7                       # Basic block distribution
system.cpu0.commit.basicBlocks.trace::117786            7                       # Basic block distribution
system.cpu0.commit.basicBlocks.trace::117890            1                       # Basic block distribution
system.cpu0.commit.basicBlocks.trace::117926            1                       # Basic block distribution
system.cpu0.commit.basicBlocks.trace::117940            2                       # Basic block distribution
system.cpu0.commit.basicBlocks.trace::117952            1                       # Basic block distribution
system.cpu0.commit.basicBlocks.trace::117966            1                       # Basic block distribution
system.cpu0.commit.basicBlocks.trace::117978            1                       # Basic block distribution
system.cpu0.commit.basicBlocks.trace::117988            1                       # Basic block distribution
system.cpu0.commit.basicBlocks.trace::117992            1                       # Basic block distribution
system.cpu0.commit.basicBlocks.trace::118012            1                       # Basic block distribution
system.cpu0.commit.basicBlocks.trace::118032            1                       # Basic block distribution
system.cpu0.commit.basicBlocks.trace::118036            1                       # Basic block distribution
system.cpu0.commit.basicBlocks.trace::118066            1                       # Basic block distribution
system.cpu0.commit.basicBlocks.trace::118078            1                       # Basic block distribution
system.cpu0.commit.basicBlocks.trace::118098            1                       # Basic block distribution
system.cpu0.commit.basicBlocks.trace::118114            1                       # Basic block distribution
system.cpu0.commit.basicBlocks.trace::118140            1                       # Basic block distribution
system.cpu0.commit.basicBlocks.trace::118146            1                       # Basic block distribution
system.cpu0.commit.basicBlocks.trace::118150            1                       # Basic block distribution
system.cpu0.commit.basicBlocks.trace::118156            1                       # Basic block distribution
system.cpu0.commit.basicBlocks.trace::118200            1                       # Basic block distribution
system.cpu0.commit.basicBlocks.trace::118236            1                       # Basic block distribution
system.cpu0.commit.basicBlocks.trace::118278            1                       # Basic block distribution
system.cpu0.commit.basicBlocks.trace::118316            1                       # Basic block distribution
system.cpu0.commit.basicBlocks.trace::118448            1                       # Basic block distribution
system.cpu0.commit.basicBlocks.trace::118472            1                       # Basic block distribution
system.cpu0.commit.basicBlocks.trace::118474            1                       # Basic block distribution
system.cpu0.commit.basicBlocks.trace::118516            1                       # Basic block distribution
system.cpu0.commit.basicBlocks.trace::118544            1                       # Basic block distribution
system.cpu0.commit.basicBlocks.trace::118576            1                       # Basic block distribution
system.cpu0.commit.basicBlocks.trace::118582            1                       # Basic block distribution
system.cpu0.commit.basicBlocks.trace::118590            1                       # Basic block distribution
system.cpu0.commit.basicBlocks.trace::118638            1                       # Basic block distribution
system.cpu0.commit.basicBlocks.trace::118642            1                       # Basic block distribution
system.cpu0.commit.basicBlocks.trace::118650            1                       # Basic block distribution
system.cpu0.commit.basicBlocks.trace::118678            1                       # Basic block distribution
system.cpu0.commit.basicBlocks.trace::118680            1                       # Basic block distribution
system.cpu0.commit.basicBlocks.trace::118684            1                       # Basic block distribution
system.cpu0.commit.basicBlocks.trace::118700            1                       # Basic block distribution
system.cpu0.commit.basicBlocks.trace::118778            1                       # Basic block distribution
system.cpu0.commit.basicBlocks.trace::118782            1                       # Basic block distribution
system.cpu0.commit.basicBlocks.trace::118786            1                       # Basic block distribution
system.cpu0.commit.basicBlocks.trace::118790            1                       # Basic block distribution
system.cpu0.commit.basicBlocks.trace::118810            1                       # Basic block distribution
system.cpu0.commit.basicBlocks.trace::118818            1                       # Basic block distribution
system.cpu0.commit.basicBlocks.trace::118850            1                       # Basic block distribution
system.cpu0.commit.basicBlocks.trace::118910            1                       # Basic block distribution
system.cpu0.commit.basicBlocks.trace::118994            1                       # Basic block distribution
system.cpu0.commit.basicBlocks.trace::119046            1                       # Basic block distribution
system.cpu0.commit.basicBlocks.trace::119112            1                       # Basic block distribution
system.cpu0.commit.basicBlocks.trace::120772           12                       # Basic block distribution
system.cpu0.commit.basicBlocks.trace::120808           12                       # Basic block distribution
system.cpu0.commit.basicBlocks.trace::122264           16                       # Basic block distribution
system.cpu0.commit.basicBlocks.trace::122290           16                       # Basic block distribution
system.cpu0.commit.basicBlocks.trace::122292           16                       # Basic block distribution
system.cpu0.commit.basicBlocks.trace::122320           16                       # Basic block distribution
system.cpu0.commit.basicBlocks.trace::122336           16                       # Basic block distribution
system.cpu0.commit.basicBlocks.trace::122350           16                       # Basic block distribution
system.cpu0.commit.basicBlocks.trace::122352           16                       # Basic block distribution
system.cpu0.commit.basicBlocks.trace::122388           16                       # Basic block distribution
system.cpu0.commit.basicBlocks.trace::122472           16                       # Basic block distribution
system.cpu0.commit.basicBlocks.trace::122478           16                       # Basic block distribution
system.cpu0.commit.basicBlocks.trace::122500           16                       # Basic block distribution
system.cpu0.commit.basicBlocks.trace::122518           16                       # Basic block distribution
system.cpu0.commit.basicBlocks.trace::122530           16                       # Basic block distribution
system.cpu0.commit.basicBlocks.trace::122540           16                       # Basic block distribution
system.cpu0.commit.basicBlocks.trace::122546           16                       # Basic block distribution
system.cpu0.commit.basicBlocks.trace::122550           16                       # Basic block distribution
system.cpu0.commit.basicBlocks.trace::122572           16                       # Basic block distribution
system.cpu0.commit.basicBlocks.trace::122584           16                       # Basic block distribution
system.cpu0.commit.basicBlocks.trace::122596           16                       # Basic block distribution
system.cpu0.commit.basicBlocks.trace::122604           16                       # Basic block distribution
system.cpu0.commit.basicBlocks.trace::122624           16                       # Basic block distribution
system.cpu0.commit.basicBlocks.trace::122628           16                       # Basic block distribution
system.cpu0.commit.basicBlocks.trace::122748           16                       # Basic block distribution
system.cpu0.commit.basicBlocks.trace::122768           16                       # Basic block distribution
system.cpu0.commit.basicBlocks.trace::122780           16                       # Basic block distribution
system.cpu0.commit.basicBlocks.trace::122790           16                       # Basic block distribution
system.cpu0.commit.basicBlocks.trace::122796           16                       # Basic block distribution
system.cpu0.commit.basicBlocks.trace::122800           16                       # Basic block distribution
system.cpu0.commit.basicBlocks.trace::122822           16                       # Basic block distribution
system.cpu0.commit.basicBlocks.trace::122864           16                       # Basic block distribution
system.cpu0.commit.basicBlocks.trace::122886           16                       # Basic block distribution
system.cpu0.commit.basicBlocks.trace::122892           16                       # Basic block distribution
system.cpu0.commit.basicBlocks.trace::122914           16                       # Basic block distribution
system.cpu0.commit.basicBlocks.trace::122916           16                       # Basic block distribution
system.cpu0.commit.basicBlocks.trace::122928           16                       # Basic block distribution
system.cpu0.commit.basicBlocks.trace::123094            2                       # Basic block distribution
system.cpu0.commit.basicBlocks.trace::123114            2                       # Basic block distribution
system.cpu0.commit.basicBlocks.trace::123130            2                       # Basic block distribution
system.cpu0.commit.basicBlocks.trace::123142            2                       # Basic block distribution
system.cpu0.commit.basicBlocks.trace::123152            2                       # Basic block distribution
system.cpu0.commit.basicBlocks.trace::123158            2                       # Basic block distribution
system.cpu0.commit.basicBlocks.trace::123162            2                       # Basic block distribution
system.cpu0.commit.basicBlocks.trace::123184            1                       # Basic block distribution
system.cpu0.commit.basicBlocks.trace::123190            2                       # Basic block distribution
system.cpu0.commit.basicBlocks.trace::123220            2                       # Basic block distribution
system.cpu0.commit.basicBlocks.trace::123230            2                       # Basic block distribution
system.cpu0.commit.basicBlocks.trace::123234            2                       # Basic block distribution
system.cpu0.commit.basicBlocks.trace::123258            2                       # Basic block distribution
system.cpu0.commit.basicBlocks.trace::123274            2                       # Basic block distribution
system.cpu0.commit.basicBlocks.trace::123286            2                       # Basic block distribution
system.cpu0.commit.basicBlocks.trace::123298            2                       # Basic block distribution
system.cpu0.commit.basicBlocks.trace::123324            1                       # Basic block distribution
system.cpu0.commit.basicBlocks.trace::123336            2                       # Basic block distribution
system.cpu0.commit.basicBlocks.trace::123386            2                       # Basic block distribution
system.cpu0.commit.basicBlocks.trace::123392            2                       # Basic block distribution
system.cpu0.commit.basicBlocks.trace::123480           48                       # Basic block distribution
system.cpu0.commit.basicBlocks.trace::123486           48                       # Basic block distribution
system.cpu0.commit.basicBlocks.trace::123498           32                       # Basic block distribution
system.cpu0.commit.basicBlocks.trace::123506           32                       # Basic block distribution
system.cpu0.commit.basicBlocks.trace::123538           48                       # Basic block distribution
system.cpu0.commit.basicBlocks.trace::123566           48                       # Basic block distribution
system.cpu0.commit.basicBlocks.trace::131584           32                       # Basic block distribution
system.cpu0.commit.basicBlocks.trace::131612           32                       # Basic block distribution
system.cpu0.commit.basicBlocks.trace::131624           32                       # Basic block distribution
system.cpu0.commit.basicBlocks.trace::131634           32                       # Basic block distribution
system.cpu0.commit.basicBlocks.trace::131640           32                       # Basic block distribution
system.cpu0.commit.basicBlocks.trace::131644           32                       # Basic block distribution
system.cpu0.commit.basicBlocks.trace::131668           32                       # Basic block distribution
system.cpu0.commit.basicBlocks.trace::131690           32                       # Basic block distribution
system.cpu0.commit.basicBlocks.trace::131702           32                       # Basic block distribution
system.cpu0.commit.basicBlocks.trace::131718           32                       # Basic block distribution
system.cpu0.commit.basicBlocks.trace::132876           17                       # Basic block distribution
system.cpu0.commit.basicBlocks.trace::132888           17                       # Basic block distribution
system.cpu0.commit.basicBlocks.trace::132890           17                       # Basic block distribution
system.cpu0.commit.basicBlocks.trace::133002            5                       # Basic block distribution
system.cpu0.commit.basicBlocks.trace::133066            5                       # Basic block distribution
system.cpu0.commit.basicBlocks.trace::133070            5                       # Basic block distribution
system.cpu0.commit.basicBlocks.trace::133082            5                       # Basic block distribution
system.cpu0.commit.basicBlocks.trace::133094            5                       # Basic block distribution
system.cpu0.commit.basicBlocks.trace::133116            5                       # Basic block distribution
system.cpu0.commit.basicBlocks.trace::133138            5                       # Basic block distribution
system.cpu0.commit.basicBlocks.trace::133150            5                       # Basic block distribution
system.cpu0.commit.basicBlocks.trace::133250           48                       # Basic block distribution
system.cpu0.commit.basicBlocks.trace::133276           32                       # Basic block distribution
system.cpu0.commit.basicBlocks.trace::133292           16                       # Basic block distribution
system.cpu0.commit.basicBlocks.trace::133314           16                       # Basic block distribution
system.cpu0.commit.basicBlocks.trace::133320           32                       # Basic block distribution
system.cpu0.commit.basicBlocks.trace::133326           16                       # Basic block distribution
system.cpu0.commit.basicBlocks.trace::133358           16                       # Basic block distribution
system.cpu0.commit.basicBlocks.trace::133368           16                       # Basic block distribution
system.cpu0.commit.basicBlocks.trace::133372           16                       # Basic block distribution
system.cpu0.commit.basicBlocks.trace::133384           16                       # Basic block distribution
system.cpu0.commit.basicBlocks.trace::133390           16                       # Basic block distribution
system.cpu0.commit.basicBlocks.trace::133400           32                       # Basic block distribution
system.cpu0.commit.basicBlocks.trace::133426           32                       # Basic block distribution
system.cpu0.commit.basicBlocks.trace::133446           32                       # Basic block distribution
system.cpu0.commit.basicBlocks.trace::133458           32                       # Basic block distribution
system.cpu0.commit.basicBlocks.trace::133468           32                       # Basic block distribution
system.cpu0.commit.basicBlocks.trace::133474           32                       # Basic block distribution
system.cpu0.commit.basicBlocks.trace::133478           16                       # Basic block distribution
system.cpu0.commit.basicBlocks.trace::133490           16                       # Basic block distribution
system.cpu0.commit.basicBlocks.trace::133506           16                       # Basic block distribution
system.cpu0.commit.basicBlocks.trace::133510           16                       # Basic block distribution
system.cpu0.commit.basicBlocks.trace::133516           32                       # Basic block distribution
system.cpu0.commit.basicBlocks.trace::133550           16                       # Basic block distribution
system.cpu0.commit.basicBlocks.trace::133554           16                       # Basic block distribution
system.cpu0.commit.basicBlocks.trace::133556           16                       # Basic block distribution
system.cpu0.commit.basicBlocks.trace::133566           32                       # Basic block distribution
system.cpu0.commit.basicBlocks.trace::133570           16                       # Basic block distribution
system.cpu0.commit.basicBlocks.trace::133586           16                       # Basic block distribution
system.cpu0.commit.basicBlocks.trace::133592           16                       # Basic block distribution
system.cpu0.commit.basicBlocks.trace::133638           16                       # Basic block distribution
system.cpu0.commit.basicBlocks.trace::133642           16                       # Basic block distribution
system.cpu0.commit.basicBlocks.trace::133648           16                       # Basic block distribution
system.cpu0.commit.basicBlocks.trace::133802           48                       # Basic block distribution
system.cpu0.commit.basicBlocks.trace::133824           16                       # Basic block distribution
system.cpu0.commit.basicBlocks.trace::133828           16                       # Basic block distribution
system.cpu0.commit.basicBlocks.trace::133908           16                       # Basic block distribution
system.cpu0.commit.basicBlocks.trace::133914           16                       # Basic block distribution
system.cpu0.commit.basicBlocks.trace::133922           16                       # Basic block distribution
system.cpu0.commit.basicBlocks.trace::133938           16                       # Basic block distribution
system.cpu0.commit.basicBlocks.trace::134078           16                       # Basic block distribution
system.cpu0.commit.basicBlocks.trace::134088           16                       # Basic block distribution
system.cpu0.commit.basicBlocks.trace::134096           16                       # Basic block distribution
system.cpu0.commit.basicBlocks.trace::134122           16                       # Basic block distribution
system.cpu0.commit.basicBlocks.trace::134280           16                       # Basic block distribution
system.cpu0.commit.basicBlocks.trace::134290           16                       # Basic block distribution
system.cpu0.commit.basicBlocks.trace::134316           16                       # Basic block distribution
system.cpu0.commit.basicBlocks.trace::134330           16                       # Basic block distribution
system.cpu0.commit.basicBlocks.trace::134334           16                       # Basic block distribution
system.cpu0.commit.basicBlocks.trace::134348           16                       # Basic block distribution
system.cpu0.commit.basicBlocks.trace::134390           16                       # Basic block distribution
system.cpu0.commit.basicBlocks.trace::135086           32                       # Basic block distribution
system.cpu0.commit.basicBlocks.trace::135592           33                       # Basic block distribution
system.cpu0.commit.basicBlocks.trace::135602            5                       # Basic block distribution
system.cpu0.commit.basicBlocks.trace::135622            5                       # Basic block distribution
system.cpu0.commit.basicBlocks.trace::135646            5                       # Basic block distribution
system.cpu0.commit.basicBlocks.trace::135650            5                       # Basic block distribution
system.cpu0.commit.basicBlocks.trace::135654            5                       # Basic block distribution
system.cpu0.commit.basicBlocks.trace::135662            5                       # Basic block distribution
system.cpu0.commit.basicBlocks.trace::135704            5                       # Basic block distribution
system.cpu0.commit.basicBlocks.trace::135718            5                       # Basic block distribution
system.cpu0.commit.basicBlocks.trace::135978           16                       # Basic block distribution
system.cpu0.commit.basicBlocks.trace::136012           16                       # Basic block distribution
system.cpu0.commit.basicBlocks.trace::136016           16                       # Basic block distribution
system.cpu0.commit.basicBlocks.trace::136026           16                       # Basic block distribution
system.cpu0.commit.basicBlocks.trace::136054           16                       # Basic block distribution
system.cpu0.commit.basicBlocks.trace::136056           32                       # Basic block distribution
system.cpu0.commit.basicBlocks.trace::136064           32                       # Basic block distribution
system.cpu0.commit.basicBlocks.trace::136068           32                       # Basic block distribution
system.cpu0.commit.basicBlocks.trace::136076           16                       # Basic block distribution
system.cpu0.commit.basicBlocks.trace::136092           16                       # Basic block distribution
system.cpu0.commit.basicBlocks.trace::136110           16                       # Basic block distribution
system.cpu0.commit.basicBlocks.trace::136118           16                       # Basic block distribution
system.cpu0.commit.basicBlocks.trace::136122           16                       # Basic block distribution
system.cpu0.commit.basicBlocks.trace::136134           16                       # Basic block distribution
system.cpu0.commit.basicBlocks.trace::136138           16                       # Basic block distribution
system.cpu0.commit.basicBlocks.trace::136142           32                       # Basic block distribution
system.cpu0.commit.basicBlocks.trace::136152           16                       # Basic block distribution
system.cpu0.commit.basicBlocks.trace::136160           16                       # Basic block distribution
system.cpu0.commit.basicBlocks.trace::136278           16                       # Basic block distribution
system.cpu0.commit.basicBlocks.trace::136284           16                       # Basic block distribution
system.cpu0.commit.basicBlocks.trace::136292           16                       # Basic block distribution
system.cpu0.commit.basicBlocks.trace::136658           48                       # Basic block distribution
system.cpu0.commit.basicBlocks.trace::136666           48                       # Basic block distribution
system.cpu0.commit.basicBlocks.trace::136698           38                       # Basic block distribution
system.cpu0.commit.basicBlocks.trace::136718           26                       # Basic block distribution
system.cpu0.commit.basicBlocks.trace::136740            1                       # Basic block distribution
system.cpu0.commit.basicBlocks.trace::136750            1                       # Basic block distribution
system.cpu0.commit.basicBlocks.trace::136752            3                       # Basic block distribution
system.cpu0.commit.basicBlocks.trace::136782            4                       # Basic block distribution
system.cpu0.commit.basicBlocks.trace::136792            4                       # Basic block distribution
system.cpu0.commit.basicBlocks.trace::136798            4                       # Basic block distribution
system.cpu0.commit.basicBlocks.trace::136814            4                       # Basic block distribution
system.cpu0.commit.basicBlocks.trace::136826            4                       # Basic block distribution
system.cpu0.commit.basicBlocks.trace::136832           38                       # Basic block distribution
system.cpu0.commit.basicBlocks.trace::136852           25                       # Basic block distribution
system.cpu0.commit.basicBlocks.trace::136862           25                       # Basic block distribution
system.cpu0.commit.basicBlocks.trace::136870           25                       # Basic block distribution
system.cpu0.commit.basicBlocks.trace::136882           25                       # Basic block distribution
system.cpu0.commit.basicBlocks.trace::136884           81                       # Basic block distribution
system.cpu0.commit.basicBlocks.trace::136888           84                       # Basic block distribution
system.cpu0.commit.basicBlocks.trace::136898            3                       # Basic block distribution
system.cpu0.commit.basicBlocks.trace::136918           25                       # Basic block distribution
system.cpu0.commit.basicBlocks.trace::136924           25                       # Basic block distribution
system.cpu0.commit.basicBlocks.trace::136932           25                       # Basic block distribution
system.cpu0.commit.basicBlocks.trace::136946           22                       # Basic block distribution
system.cpu0.commit.basicBlocks.trace::136952            3                       # Basic block distribution
system.cpu0.commit.basicBlocks.trace::136976            4                       # Basic block distribution
system.cpu0.commit.basicBlocks.trace::136988            4                       # Basic block distribution
system.cpu0.commit.basicBlocks.trace::137010           22                       # Basic block distribution
system.cpu0.commit.basicBlocks.trace::137030            3                       # Basic block distribution
system.cpu0.commit.basicBlocks.trace::137034           16                       # Basic block distribution
system.cpu0.commit.basicBlocks.trace::137064           16                       # Basic block distribution
system.cpu0.commit.basicBlocks.trace::137118           16                       # Basic block distribution
system.cpu0.commit.basicBlocks.trace::137138           16                       # Basic block distribution
system.cpu0.commit.basicBlocks.trace::137150           16                       # Basic block distribution
system.cpu0.commit.basicBlocks.trace::137156           16                       # Basic block distribution
system.cpu0.commit.basicBlocks.trace::137232           16                       # Basic block distribution
system.cpu0.commit.basicBlocks.trace::137238           16                       # Basic block distribution
system.cpu0.commit.basicBlocks.trace::137476            6                       # Basic block distribution
system.cpu0.commit.basicBlocks.trace::137478            1                       # Basic block distribution
system.cpu0.commit.basicBlocks.trace::137482            5                       # Basic block distribution
system.cpu0.commit.basicBlocks.trace::137494            5                       # Basic block distribution
system.cpu0.commit.basicBlocks.trace::137804           16                       # Basic block distribution
system.cpu0.commit.basicBlocks.trace::137828           16                       # Basic block distribution
system.cpu0.commit.basicBlocks.trace::137864           16                       # Basic block distribution
system.cpu0.commit.basicBlocks.trace::137890           16                       # Basic block distribution
system.cpu0.commit.basicBlocks.trace::137926           16                       # Basic block distribution
system.cpu0.commit.basicBlocks.trace::137936           32                       # Basic block distribution
system.cpu0.commit.basicBlocks.trace::137940           32                       # Basic block distribution
system.cpu0.commit.basicBlocks.trace::137944           32                       # Basic block distribution
system.cpu0.commit.basicBlocks.trace::137948           16                       # Basic block distribution
system.cpu0.commit.basicBlocks.trace::137954           16                       # Basic block distribution
system.cpu0.commit.basicBlocks.trace::137970           16                       # Basic block distribution
system.cpu0.commit.basicBlocks.trace::137976           16                       # Basic block distribution
system.cpu0.commit.basicBlocks.trace::137992           16                       # Basic block distribution
system.cpu0.commit.basicBlocks.trace::138480           16                       # Basic block distribution
system.cpu0.commit.basicBlocks.trace::138560           16                       # Basic block distribution
system.cpu0.commit.basicBlocks.trace::138816           32                       # Basic block distribution
system.cpu0.commit.basicBlocks.trace::138826           32                       # Basic block distribution
system.cpu0.commit.basicBlocks.trace::138850           31                       # Basic block distribution
system.cpu0.commit.basicBlocks.trace::138852           31                       # Basic block distribution
system.cpu0.commit.basicBlocks.trace::138860           28                       # Basic block distribution
system.cpu0.commit.basicBlocks.trace::138866           28                       # Basic block distribution
system.cpu0.commit.basicBlocks.trace::138884           28                       # Basic block distribution
system.cpu0.commit.basicBlocks.trace::138890           28                       # Basic block distribution
system.cpu0.commit.basicBlocks.trace::138896           28                       # Basic block distribution
system.cpu0.commit.basicBlocks.trace::138912            1                       # Basic block distribution
system.cpu0.commit.basicBlocks.trace::138916            1                       # Basic block distribution
system.cpu0.commit.basicBlocks.trace::138922            1                       # Basic block distribution
system.cpu0.commit.basicBlocks.trace::138928            1                       # Basic block distribution
system.cpu0.commit.basicBlocks.trace::138958            1                       # Basic block distribution
system.cpu0.commit.basicBlocks.trace::138964            1                       # Basic block distribution
system.cpu0.commit.basicBlocks.trace::138972            4                       # Basic block distribution
system.cpu0.commit.basicBlocks.trace::138992            2                       # Basic block distribution
system.cpu0.commit.basicBlocks.trace::139006            2                       # Basic block distribution
system.cpu0.commit.basicBlocks.trace::139080            1                       # Basic block distribution
system.cpu0.commit.basicBlocks.trace::139086            1                       # Basic block distribution
system.cpu0.commit.basicBlocks.trace::139158           17                       # Basic block distribution
system.cpu0.commit.basicBlocks.trace::139206           17                       # Basic block distribution
system.cpu0.commit.basicBlocks.trace::139260           17                       # Basic block distribution
system.cpu0.commit.basicBlocks.trace::140226           32                       # Basic block distribution
system.cpu0.commit.basicBlocks.trace::140236           16                       # Basic block distribution
system.cpu0.commit.basicBlocks.trace::140292           16                       # Basic block distribution
system.cpu0.commit.basicBlocks.trace::140310           16                       # Basic block distribution
system.cpu0.commit.basicBlocks.trace::140320           16                       # Basic block distribution
system.cpu0.commit.basicBlocks.trace::140326           16                       # Basic block distribution
system.cpu0.commit.basicBlocks.trace::140332           16                       # Basic block distribution
system.cpu0.commit.basicBlocks.trace::140358           16                       # Basic block distribution
system.cpu0.commit.basicBlocks.trace::140370           16                       # Basic block distribution
system.cpu0.commit.basicBlocks.trace::140380           16                       # Basic block distribution
system.cpu0.commit.basicBlocks.trace::140386           16                       # Basic block distribution
system.cpu0.commit.basicBlocks.trace::140392           16                       # Basic block distribution
system.cpu0.commit.basicBlocks.trace::140438           16                       # Basic block distribution
system.cpu0.commit.basicBlocks.trace::140448           16                       # Basic block distribution
system.cpu0.commit.basicBlocks.trace::140462           16                       # Basic block distribution
system.cpu0.commit.basicBlocks.trace::140478           16                       # Basic block distribution
system.cpu0.commit.basicBlocks.trace::140496           16                       # Basic block distribution
system.cpu0.commit.basicBlocks.trace::140510           16                       # Basic block distribution
system.cpu0.commit.basicBlocks.trace::140546           16                       # Basic block distribution
system.cpu0.commit.basicBlocks.trace::140590           16                       # Basic block distribution
system.cpu0.commit.basicBlocks.trace::140724           16                       # Basic block distribution
system.cpu0.commit.basicBlocks.trace::140786           16                       # Basic block distribution
system.cpu0.commit.basicBlocks.trace::140794           16                       # Basic block distribution
system.cpu0.commit.basicBlocks.trace::140806           16                       # Basic block distribution
system.cpu0.commit.basicBlocks.trace::140906            2                       # Basic block distribution
[...]
system.mem_ctrl.wrQLenPdf::1                        1                       # What write queue length does an incoming req see
system.mem_ctrl.wrQLenPdf::2                        1                       # What write queue length does an incoming req see
system.mem_ctrl.wrQLenPdf::3                        1                       # What write queue length does an incoming req see
system.mem_ctrl.wrQLenPdf::4                        1                       # What write queue length does an incoming req see
system.mem_ctrl.wrQLenPdf::5                        1                       # What write queue length does an incoming req see
system.mem_ctrl.wrQLenPdf::6                        1                       # What write queue length does an incoming req see
system.mem_ctrl.wrQLenPdf::7                        1                       # What write queue length does an incoming req see
system.mem_ctrl.wrQLenPdf::8                        1                       # What write queue length does an incoming req see
system.mem_ctrl.wrQLenPdf::9                        1                       # What write queue length does an incoming req see
system.mem_ctrl.wrQLenPdf::10                       1                       # What write queue length does an incoming req see
system.mem_ctrl.wrQLenPdf::11                       1                       # What write queue length does an incoming req see
system.mem_ctrl.wrQLenPdf::12                       1                       # What write queue length does an incoming req see
system.mem_ctrl.wrQLenPdf::13                       1                       # What write queue length does an incoming req see
system.mem_ctrl.wrQLenPdf::14                       1                       # What write queue length does an incoming req see
system.mem_ctrl.wrQLenPdf::15                      12                       # What write queue length does an incoming req see
system.mem_ctrl.wrQLenPdf::16                      12                       # What write queue length does an incoming req see
system.mem_ctrl.wrQLenPdf::17                      13                       # What write queue length does an incoming req see
system.mem_ctrl.wrQLenPdf::18                      13                       # What write queue length does an incoming req see
system.mem_ctrl.wrQLenPdf::19                      13                       # What write queue length does an incoming req see
system.mem_ctrl.wrQLenPdf::20                      13                       # What write queue length does an incoming req see
system.mem_ctrl.wrQLenPdf::21                      14                       # What write queue length does an incoming req see
system.mem_ctrl.wrQLenPdf::22                      13                       # What write queue length does an incoming req see
system.mem_ctrl.wrQLenPdf::23                      13                       # What write queue length does an incoming req see
system.mem_ctrl.wrQLenPdf::24                      13                       # What write queue length does an incoming req see
system.mem_ctrl.wrQLenPdf::25                      13                       # What write queue length does an incoming req see
system.mem_ctrl.wrQLenPdf::26                      13                       # What write queue length does an incoming req see
system.mem_ctrl.wrQLenPdf::27                      13                       # What write queue length does an incoming req see
system.mem_ctrl.wrQLenPdf::28                      13                       # What write queue length does an incoming req see
system.mem_ctrl.wrQLenPdf::29                      13                       # What write queue length does an incoming req see
system.mem_ctrl.wrQLenPdf::30                      12                       # What write queue length does an incoming req see
system.mem_ctrl.wrQLenPdf::31                      12                       # What write queue length does an incoming req see
system.mem_ctrl.wrQLenPdf::32                      12                       # What write queue length does an incoming req see
system.mem_ctrl.wrQLenPdf::33                       0                       # What write queue length does an incoming req see
system.mem_ctrl.wrQLenPdf::34                       0                       # What write queue length does an incoming req see
system.mem_ctrl.wrQLenPdf::35                       0                       # What write queue length does an incoming req see
system.mem_ctrl.wrQLenPdf::36                       0                       # What write queue length does an incoming req see
system.mem_ctrl.wrQLenPdf::37                       0                       # What write queue length does an incoming req see
system.mem_ctrl.wrQLenPdf::38                       0                       # What write queue length does an incoming req see
system.mem_ctrl.wrQLenPdf::39                       0                       # What write queue length does an incoming req see
system.mem_ctrl.wrQLenPdf::40                       0                       # What write queue length does an incoming req see
system.mem_ctrl.wrQLenPdf::41                       0                       # What write queue length does an incoming req see
system.mem_ctrl.wrQLenPdf::42                       0                       # What write queue length does an incoming req see
system.mem_ctrl.wrQLenPdf::43                       0                       # What write queue length does an incoming req see
system.mem_ctrl.wrQLenPdf::44                       0                       # What write queue length does an incoming req see
system.mem_ctrl.wrQLenPdf::45                       0                       # What write queue length does an incoming req see
system.mem_ctrl.wrQLenPdf::46                       0                       # What write queue length does an incoming req see
system.mem_ctrl.wrQLenPdf::47                       0                       # What write queue length does an incoming req see
system.mem_ctrl.wrQLenPdf::48                       0                       # What write queue length does an incoming req see
system.mem_ctrl.wrQLenPdf::49                       0                       # What write queue length does an incoming req see
system.mem_ctrl.wrQLenPdf::50                       0                       # What write queue length does an incoming req see
system.mem_ctrl.wrQLenPdf::51                       0                       # What write queue length does an incoming req see
system.mem_ctrl.wrQLenPdf::52                       0                       # What write queue length does an incoming req see
system.mem_ctrl.wrQLenPdf::53                       0                       # What write queue length does an incoming req see
system.mem_ctrl.wrQLenPdf::54                       0                       # What write queue length does an incoming req see
system.mem_ctrl.wrQLenPdf::55                       0                       # What write queue length does an incoming req see
system.mem_ctrl.wrQLenPdf::56                       0                       # What write queue length does an incoming req see
system.mem_ctrl.wrQLenPdf::57                       0                       # What write queue length does an incoming req see
system.mem_ctrl.wrQLenPdf::58                       0                       # What write queue length does an incoming req see
system.mem_ctrl.wrQLenPdf::59                       0                       # What write queue length does an incoming req see
system.mem_ctrl.wrQLenPdf::60                       0                       # What write queue length does an incoming req see
system.mem_ctrl.wrQLenPdf::61                       0                       # What write queue length does an incoming req see
system.mem_ctrl.wrQLenPdf::62                       0                       # What write queue length does an incoming req see
system.mem_ctrl.wrQLenPdf::63                       0                       # What write queue length does an incoming req see
system.mem_ctrl.writeBursts                       315                       # Number of DRAM write bursts, including those merged in the write queue
system.mem_ctrl.writePktSize::0                     0                       # Write request sizes (log2)
system.mem_ctrl.writePktSize::1                     0                       # Write request sizes (log2)
system.mem_ctrl.writePktSize::2                     0                       # Write request sizes (log2)
system.mem_ctrl.writePktSize::3                     0                       # Write request sizes (log2)
system.mem_ctrl.writePktSize::4                     0                       # Write request sizes (log2)
system.mem_ctrl.writePktSize::5                     0                       # Write request sizes (log2)
system.mem_ctrl.writePktSize::6                   315                       # Write request sizes (log2)
system.mem_ctrl.writeReqs                         315                       # Number of write requests accepted
system.mem_ctrl.writeRowHitRate                 60.82                       # Row buffer hit rate for writes
system.mem_ctrl.writeRowHits                      149                       # Number of row buffer hits during writes
system.mem_ctrl_0.actBackEnergy            2224509360                       # Energy for active background per rank (pJ)
system.mem_ctrl_0.actEnergy                 214478460                       # Energy for activate commands per rank (pJ)
system.mem_ctrl_0.actPowerDownEnergy      36778445730                       # Energy for active power-down per rank (pJ)
system.mem_ctrl_0.averagePower             411.024476                       # Core power per rank (mW)
system.mem_ctrl_0.memoryStateTime::IDLE      85625000                       # Time in different power states
system.mem_ctrl_0.memoryStateTime::REF     3304600000                       # Time in different power states
system.mem_ctrl_0.memoryStateTime::SREF   70395552000                       # Time in different power states
system.mem_ctrl_0.memoryStateTime::PRE_PDN  12946799000                       # Time in different power states
system.mem_ctrl_0.memoryStateTime::ACT     1987586750                       # Time in different power states
system.mem_ctrl_0.memoryStateTime::ACT_PDN  80654427250                       # Time in different power states
system.mem_ctrl_0.preBackEnergy             191743200                       # Energy for precharge background per rank (pJ)
system.mem_ctrl_0.preEnergy                 113990415                       # Energy for precharge commands per rank (pJ)
system.mem_ctrl_0.prePowerDownEnergy       4971612960                       # Energy for precharge power-down per rank (pJ)
system.mem_ctrl_0.readEnergy                394792020                       # Energy for read commands per rank (pJ)
system.mem_ctrl_0.refreshEnergy          7812074400.000001                       # Energy for refresh commands per rank (pJ)
system.mem_ctrl_0.selfRefreshEnergy       16914813540                       # Energy for self refresh per rank (pJ)
system.mem_ctrl_0.totalEnergy             69617102145                       # Total energy per rank (pJ)
system.mem_ctrl_0.totalIdleTime          163996708000                       # Total Idle time Per DRAM Rank
system.mem_ctrl_0.writeEnergy                  642060                       # Energy for write commands per rank (pJ)
system.mem_ctrl_1.actBackEnergy            2212831770                       # Energy for active background per rank (pJ)
system.mem_ctrl_1.actEnergy                 210301560                       # Energy for activate commands per rank (pJ)
system.mem_ctrl_1.actPowerDownEnergy      36813011670                       # Energy for active power-down per rank (pJ)
system.mem_ctrl_1.averagePower             411.356915                       # Core power per rank (mW)
system.mem_ctrl_1.memoryStateTime::IDLE      87151000                       # Time in different power states
system.mem_ctrl_1.memoryStateTime::REF     3313180000                       # Time in different power states
system.mem_ctrl_1.memoryStateTime::SREF   70142071000                       # Time in different power states
system.mem_ctrl_1.memoryStateTime::PRE_PDN  13151102500                       # Time in different power states
system.mem_ctrl_1.memoryStateTime::ACT     1950781500                       # Time in different power states
system.mem_ctrl_1.memoryStateTime::ACT_PDN  80730304000                       # Time in different power states
system.mem_ctrl_1.preBackEnergy             191439360                       # Energy for precharge background per rank (pJ)
system.mem_ctrl_1.preEnergy                 111774135                       # Energy for precharge commands per rank (pJ)
system.mem_ctrl_1.prePowerDownEnergy       5049978720                       # Energy for precharge power-down per rank (pJ)
system.mem_ctrl_1.readEnergy                395598840                       # Energy for read commands per rank (pJ)
system.mem_ctrl_1.refreshEnergy          7832357520.000001                       # Energy for refresh commands per rank (pJ)
system.mem_ctrl_1.selfRefreshEnergy       16855635060                       # Energy for self refresh per rank (pJ)
system.mem_ctrl_1.totalEnergy             69673408875                       # Total energy per rank (pJ)
system.mem_ctrl_1.totalIdleTime          164023474250                       # Total Idle time Per DRAM Rank
system.mem_ctrl_1.writeEnergy                  480240                       # Energy for write commands per rank (pJ)
system.membus.pkt_count_system.l2cache.mem_side::system.mem_ctrl.port       325181                       # Packet count per connected master and slave (bytes)
system.membus.pkt_count::total                 325181                       # Packet count per connected master and slave (bytes)
system.membus.pkt_size_system.l2cache.mem_side::system.mem_ctrl.port      7113280                       # Cumulative packet size per connected master and slave (bytes)
system.membus.pkt_size::total                 7113280                       # Cumulative packet size per connected master and slave (bytes)
system.membus.pwrStateResidencyTicks::UNDEFINED 169374590000                       # Cumulative time (in ticks) in various power states
system.membus.reqLayer0.occupancy           215572000                       # Layer occupancy (ticks)
system.membus.reqLayer0.utilization               0.1                       # Layer utilization (%)
system.membus.respLayer0.occupancy          598021000                       # Layer occupancy (ticks)
system.membus.respLayer0.utilization              0.4                       # Layer utilization (%)
system.membus.snoopTraffic                          0                       # Total snoop traffic (bytes)
system.membus.snoop_fanout::samples            110875                       # Request fanout histogram
system.membus.snoop_fanout::mean                    0                       # Request fanout histogram
system.membus.snoop_fanout::stdev                   0                       # Request fanout histogram
system.membus.snoop_fanout::underflows              0      0.00%      0.00% # Request fanout histogram
system.membus.snoop_fanout::0                  110875    100.00%    100.00% # Request fanout histogram
system.membus.snoop_fanout::1                       0      0.00%    100.00% # Request fanout histogram
system.membus.snoop_fanout::overflows               0      0.00%    100.00% # Request fanout histogram
system.membus.snoop_fanout::min_value               0                       # Request fanout histogram
system.membus.snoop_fanout::max_value               0                       # Request fanout histogram
system.membus.snoop_fanout::total              110875                       # Request fanout histogram
system.membus.snoop_filter.hit_multi_requests            0                       # Number of requests hitting in the snoop filter with multiple (>1) holders of the requested data.
system.membus.snoop_filter.hit_multi_snoops            0                       # Number of snoops hitting in the snoop filter with multiple (>1) holders of the requested data.
system.membus.snoop_filter.hit_single_requests       103842                       # Number of requests hitting in the snoop filter with a single holder of the requested data.
system.membus.snoop_filter.hit_single_snoops            0                       # Number of snoops hitting in the snoop filter with a single holder of the requested data.
system.membus.snoop_filter.tot_requests        214351                       # Total number of requests made to the snoop filter.
system.membus.snoop_filter.tot_snoops               0                       # Total number of snoops made to the snoop filter.
system.membus.snoops                               39                       # Total snoops (count)
system.membus.trans_dist::ReadResp             110052                       # Transaction distribution
system.membus.trans_dist::WritebackDirty          315                       # Transaction distribution
system.membus.trans_dist::CleanEvict           103161                       # Transaction distribution
system.membus.trans_dist::UpgradeReq               33                       # Transaction distribution
system.membus.trans_dist::SCUpgradeReq              7                       # Transaction distribution
system.membus.trans_dist::ReadExReq               779                       # Transaction distribution
system.membus.trans_dist::ReadExResp              778                       # Transaction distribution
system.membus.trans_dist::ReadSharedReq        110054                       # Transaction distribution
system.membus.trans_dist::InvalidateReq             2                       # Transaction distribution
system.pwrStateResidencyTicks::UNDEFINED 169374590000                       # Cumulative time (in ticks) in various power states
system.scheduler.requestFail::0                     0                       # Number of times which a column request a pe and there is no enough idle resource in other columns
system.scheduler.requestFail::1                     0                       # Number of times which a column request a pe and there is no enough idle resource in other columns
system.scheduler.requestFail::2                     0                       # Number of times which a column request a pe and there is no enough idle resource in other columns
system.scheduler.requestFail::3                     0                       # Number of times which a column request a pe and there is no enough idle resource in other columns
system.scheduler.requestSuccess::0                  0                       # Number of times which a column request a pe and other columns had idle pe
system.scheduler.requestSuccess::1                  0                       # Number of times which a column request a pe and other columns had idle pe
system.scheduler.requestSuccess::2                  0                       # Number of times which a column request a pe and other columns had idle pe
system.scheduler.requestSuccess::3                  0                       # Number of times which a column request a pe and other columns had idle pe
system.scheduler.totalRequest                       0                       # Number total of request for PE
system.scheduler.totalRequestInCore::0              0                       # Number total of request for PE
system.scheduler.totalRequestInCore::1              0                       # Number total of request for PE
system.scheduler.totalRequestInCore::2              0                       # Number total of request for PE
system.scheduler.totalRequestInCore::3              0                       # Number total of request for PE

---------- End Simulation Statistics   ----------
